
     RDKit          3D

 21 23  0  0  0  0  0  0  0  0999 V2000
   11.9095   -1.1413   55.2709 C   0  0  0  0  0  0  0  0  0  0  0  0
   12.2576   -0.8499   53.9607 C   0  0  0  0  0  0  0  0  0  0  0  0
   12.8442   -0.9727   56.2960 C   0  0  0  0  0  0  0  0  0  0  0  0
   13.5417   -0.3968   53.6777 C   0  0  0  0  0  0  0  0  0  0  0  0
   18.4755   -0.0348   55.4757 C   0  0  0  0  0  0  0  0  0  0  0  0
   19.3250   -0.3315   56.5363 C   0  0  0  0  0  0  0  0  0  0  0  0
   17.4013   -0.6376   57.9568 C   0  0  0  0  0  0  0  0  0  0  0  0
   14.1522   -0.5029   56.0457 C   0  0  0  0  0  0  0  0  0  0  0  0
   16.5107   -0.3293   56.9053 C   0  0  0  0  0  0  0  0  0  0  0  0
   14.4878   -0.2302   54.7047 C   0  0  0  0  0  0  0  0  0  0  0  0
   17.0801   -0.0394   55.6494 C   0  0  0  0  0  0  0  0  0  0  0  0
   18.7873   -0.6364   57.7774 C   0  0  0  0  0  0  0  0  0  0  0  0
   15.1043   -0.3433   57.0841 N   0  0  0  0  0  0  0  0  0  0  0  0
   16.0926    0.3782   54.2264 S   0  0  0  0  0  0  0  0  0  0  0  0
   19.8280   -1.0037   59.0987 Cl  0  0  0  0  0  0  0  0  0  0  0  0
   14.5968   -0.2557   58.4595 C   0  0  0  0  0  0  0  0  0  0  0  0
   14.3349    1.1955   58.8536 C   0  0  0  0  0  0  0  0  0  0  0  0
   12.8920    1.6125   58.5983 C   0  0  0  0  0  0  0  0  0  0  0  0
   11.1373    2.8388   59.8706 C   0  0  0  0  0  0  0  0  0  0  0  0
   11.6302    0.4579   60.4082 C   0  0  0  0  0  0  0  0  0  0  0  0
   12.1941    1.7619   59.8988 N   0  0  0  0  0  0  0  0  0  0  0  0
  1  2  2  0
  1  3  1  0
  2  4  1  0
  3  8  2  0
  4 10  2  0
  5  6  1  0
  5 11  2  0
  6 12  2  0
  7  9  2  0
  7 12  1  0
  8 10  1  0
  8 13  1  0
  9 11  1  0
  9 13  1  0
 10 14  1  0
 11 14  1  0
 12 15  1  0
 19 21  1  0
 20 21  1  0
 17 16  1  0
 17 18  1  0
 16 13  1  0
 18 21  1  0
M  CHG  1  21   1
M  END
>  <minimizedAffinity>  (1) 
-7.18356

>  <CNNscore>  (1) 
0.5966759324

>  <CNNaffinity>  (1) 
6.4834108353

>  <CNN_VS>  (1) 
3.8684952259

>  <CNNaffinity_variance>  (1) 
0.1205090657

>  <salt_bridge_distance>  (1) 
(2.988312075403101, 2.988312075403101)

$$$$

     RDKit          3D

 21 23  0  0  0  0  0  0  0  0999 V2000
   14.5767   -0.5551   54.6123 C   0  0  0  0  0  0  0  0  0  0  0  0
   13.4720   -1.2781   54.1885 C   0  0  0  0  0  0  0  0  0  0  0  0
   14.5194    0.1739   55.8033 C   0  0  0  0  0  0  0  0  0  0  0  0
   12.3103   -1.2652   54.9532 C   0  0  0  0  0  0  0  0  0  0  0  0
    9.6841    1.2553   58.7553 C   0  0  0  0  0  0  0  0  0  0  0  0
    9.7101    2.3325   59.6349 C   0  0  0  0  0  0  0  0  0  0  0  0
   12.0939    2.5015   59.3156 C   0  0  0  0  0  0  0  0  0  0  0  0
   13.3605    0.1989   56.6099 C   0  0  0  0  0  0  0  0  0  0  0  0
   12.1052    1.4034   58.4278 C   0  0  0  0  0  0  0  0  0  0  0  0
   12.2455   -0.5291   56.1497 C   0  0  0  0  0  0  0  0  0  0  0  0
   10.8657    0.7948   58.1477 C   0  0  0  0  0  0  0  0  0  0  0  0
   10.9158    2.9583   59.9129 C   0  0  0  0  0  0  0  0  0  0  0  0
   13.2984    0.9482   57.8119 N   0  0  0  0  0  0  0  0  0  0  0  0
   10.7141   -0.6059   57.0570 S   0  0  0  0  0  0  0  0  0  0  0  0
   10.9618    4.2915   61.0011 Cl  0  0  0  0  0  0  0  0  0  0  0  0
   14.5711    1.3432   58.4293 C   0  0  0  0  0  0  0  0  0  0  0  0
   15.0087    0.3243   59.4782 C   0  0  0  0  0  0  0  0  0  0  0  0
   13.8303   -0.4402   60.0683 C   0  0  0  0  0  0  0  0  0  0  0  0
   12.1928   -0.0656   61.9067 C   0  0  0  0  0  0  0  0  0  0  0  0
   14.5150   -0.7919   62.4365 C   0  0  0  0  0  0  0  0  0  0  0  0
   13.6392   -0.0216   61.4786 N   0  0  0  0  0  0  0  0  0  0  0  0
  1  2  2  0
  1  3  1  0
  2  4  1  0
  3  8  2  0
  4 10  2  0
  5  6  1  0
  5 11  2  0
  6 12  2  0
  7  9  2  0
  7 12  1  0
  8 10  1  0
  8 13  1  0
  9 11  1  0
  9 13  1  0
 10 14  1  0
 11 14  1  0
 12 15  1  0
 19 21  1  0
 20 21  1  0
 17 16  1  0
 17 18  1  0
 16 13  1  0
 18 21  1  0
M  CHG  1  21   1
M  END
>  <minimizedAffinity>  (2) 
-7.19295

>  <CNNscore>  (2) 
0.4569870234

>  <CNNaffinity>  (2) 
6.1757044792

>  <CNN_VS>  (2) 
2.8222167492

>  <CNNaffinity_variance>  (2) 
0.5930751562

>  <salt_bridge_distance>  (2) 
(3.183184248515941, 3.183184248515941)

$$$$

     RDKit          3D

 21 23  0  0  0  0  0  0  0  0999 V2000
    9.5207   -0.8772   58.1065 C   0  0  0  0  0  0  0  0  0  0  0  0
    9.1228   -1.4516   56.9089 C   0  0  0  0  0  0  0  0  0  0  0  0
   10.7746   -0.2682   58.2066 C   0  0  0  0  0  0  0  0  0  0  0  0
    9.9824   -1.4217   55.8158 C   0  0  0  0  0  0  0  0  0  0  0  0
   14.9682   -0.7340   54.2746 C   0  0  0  0  0  0  0  0  0  0  0  0
   16.2648   -0.4667   54.7012 C   0  0  0  0  0  0  0  0  0  0  0  0
   15.3795    0.3676   56.7828 C   0  0  0  0  0  0  0  0  0  0  0  0
   11.6667   -0.2091   57.1135 C   0  0  0  0  0  0  0  0  0  0  0  0
   14.0500    0.1202   56.3765 C   0  0  0  0  0  0  0  0  0  0  0  0
   11.2473   -0.8148   55.9125 C   0  0  0  0  0  0  0  0  0  0  0  0
   13.8668   -0.4530   55.1025 C   0  0  0  0  0  0  0  0  0  0  0  0
   16.4709    0.0817   55.9579 C   0  0  0  0  0  0  0  0  0  0  0  0
   12.9436    0.3981   57.2186 N   0  0  0  0  0  0  0  0  0  0  0  0
   12.2525   -0.8162   54.4416 S   0  0  0  0  0  0  0  0  0  0  0  0
   18.0707    0.4190   56.4970 Cl  0  0  0  0  0  0  0  0  0  0  0  0
   13.1576    1.3356   58.3286 C   0  0  0  0  0  0  0  0  0  0  0  0
   13.8858    0.6557   59.4850 C   0  0  0  0  0  0  0  0  0  0  0  0
   12.9304   -0.0757   60.4197 C   0  0  0  0  0  0  0  0  0  0  0  0
   12.1288    0.2505   62.7548 C   0  0  0  0  0  0  0  0  0  0  0  0
   14.3763   -0.7367   62.3363 C   0  0  0  0  0  0  0  0  0  0  0  0
   13.3159    0.2072   61.8240 N   0  0  0  0  0  0  0  0  0  0  0  0
  1  2  2  0
  1  3  1  0
  2  4  1  0
  3  8  2  0
  4 10  2  0
  5  6  1  0
  5 11  2  0
  6 12  2  0
  7  9  2  0
  7 12  1  0
  8 10  1  0
  8 13  1  0
  9 11  1  0
  9 13  1  0
 10 14  1  0
 11 14  1  0
 12 15  1  0
 19 21  1  0
 20 21  1  0
 17 16  1  0
 17 18  1  0
 16 13  1  0
 18 21  1  0
M  CHG  1  21   1
M  END
>  <minimizedAffinity>  (3) 
-6.82361

>  <CNNscore>  (3) 
0.3848103583

>  <CNNaffinity>  (3) 
6.1780123711

>  <CNN_VS>  (3) 
2.3773632050

>  <CNNaffinity_variance>  (3) 
0.2180361450

>  <salt_bridge_distance>  (3) 
(2.9789243444572406, 2.9789243444572406)

$$$$

     RDKit          3D

 21 23  0  0  0  0  0  0  0  0999 V2000
   17.5271    1.3176   57.0374 C   0  0  0  0  0  0  0  0  0  0  0  0
   17.6397    0.6495   55.8276 C   0  0  0  0  0  0  0  0  0  0  0  0
   16.3649    1.1864   57.8023 C   0  0  0  0  0  0  0  0  0  0  0  0
   16.5871   -0.1431   55.3823 C   0  0  0  0  0  0  0  0  0  0  0  0
   11.4596   -1.1995   55.9290 C   0  0  0  0  0  0  0  0  0  0  0  0
   10.2947   -0.8636   56.6107 C   0  0  0  0  0  0  0  0  0  0  0  0
   11.6290    0.2101   58.3076 C   0  0  0  0  0  0  0  0  0  0  0  0
   15.2826    0.3804   57.3861 C   0  0  0  0  0  0  0  0  0  0  0  0
   12.8316   -0.1251   57.6478 C   0  0  0  0  0  0  0  0  0  0  0  0
   15.4133   -0.2746   56.1455 C   0  0  0  0  0  0  0  0  0  0  0  0
   12.7193   -0.8301   56.4330 C   0  0  0  0  0  0  0  0  0  0  0  0
   10.3793   -0.1553   57.7997 C   0  0  0  0  0  0  0  0  0  0  0  0
   14.0987    0.2569   58.1564 N   0  0  0  0  0  0  0  0  0  0  0  0
   14.1420   -1.3345   55.4863 S   0  0  0  0  0  0  0  0  0  0  0  0
    8.9450    0.2651   58.6541 Cl  0  0  0  0  0  0  0  0  0  0  0  0
   14.1753    0.6201   59.5774 C   0  0  0  0  0  0  0  0  0  0  0  0
   14.3179   -0.6228   60.4519 C   0  0  0  0  0  0  0  0  0  0  0  0
   13.8052   -0.3949   61.8683 C   0  0  0  0  0  0  0  0  0  0  0  0
   11.4523   -1.0141   61.3368 C   0  0  0  0  0  0  0  0  0  0  0  0
   11.9264    0.6763   63.1027 C   0  0  0  0  0  0  0  0  0  0  0  0
   12.3965    0.0661   61.8048 N   0  0  0  0  0  0  0  0  0  0  0  0
  1  2  2  0
  1  3  1  0
  2  4  1  0
  3  8  2  0
  4 10  2  0
  5  6  1  0
  5 11  2  0
  6 12  2  0
  7  9  2  0
  7 12  1  0
  8 10  1  0
  8 13  1  0
  9 11  1  0
  9 13  1  0
 10 14  1  0
 11 14  1  0
 12 15  1  0
 19 21  1  0
 20 21  1  0
 17 16  1  0
 17 18  1  0
 16 13  1  0
 18 21  1  0
M  CHG  1  21   1
M  END
>  <minimizedAffinity>  (4) 
-7.25632

>  <CNNscore>  (4) 
0.3811834157

>  <CNNaffinity>  (4) 
6.1601166725

>  <CNN_VS>  (4) 
2.3481342793

>  <CNNaffinity_variance>  (4) 
0.2838861942

>  <salt_bridge_distance>  (4) 
(3.4233158341000327, 3.4233158341000327)

$$$$

     RDKit          3D

 27 30  0  0  0  0  0  0  0  0999 V2000
   14.3379   -1.2132   55.4093 C   0  0  0  0  0  0  0  0  0  0  0  0
   20.8876   -2.0038   58.0042 C   0  0  0  0  0  0  0  0  0  0  0  0
   15.0027   -0.6830   54.3109 C   0  0  0  0  0  0  0  0  0  0  0  0
   21.1993   -1.5183   56.7410 C   0  0  0  0  0  0  0  0  0  0  0  0
   14.8488   -1.0146   56.6925 C   0  0  0  0  0  0  0  0  0  0  0  0
   19.7205   -1.5813   58.6410 C   0  0  0  0  0  0  0  0  0  0  0  0
   16.1815    0.0355   54.4972 C   0  0  0  0  0  0  0  0  0  0  0  0
   20.3527   -0.5987   56.1254 C   0  0  0  0  0  0  0  0  0  0  0  0
   16.0343   -0.2856   56.9056 C   0  0  0  0  0  0  0  0  0  0  0  0
   18.8270   -0.6905   58.0203 C   0  0  0  0  0  0  0  0  0  0  0  0
   16.7015    0.2291   55.7861 C   0  0  0  0  0  0  0  0  0  0  0  0
   19.1731   -0.1742   56.7593 C   0  0  0  0  0  0  0  0  0  0  0  0
   16.4945   -0.0724   58.2974 C   0  0  0  0  0  0  0  0  0  0  0  0
   17.7282   -0.3185   58.7487 N   0  0  0  0  0  0  0  0  0  0  0  0
   18.2318    1.1147   55.9571 S   0  0  0  0  0  0  0  0  0  0  0  0
   15.3909   -0.2781   60.4827 C   0  0  0  0  0  0  0  0  0  0  0  0
   14.7195    1.5123   58.9082 C   0  0  0  0  0  0  0  0  0  0  0  0
   13.9304   -0.6163   60.7428 C   0  0  0  0  0  0  0  0  0  0  0  0
   13.2515    1.1947   59.1510 C   0  0  0  0  0  0  0  0  0  0  0  0
   15.5570    0.3521   59.1800 N   0  0  0  0  0  0  0  0  0  0  0  0
   13.0922    0.6294   60.5467 N   0  0  0  0  0  0  0  0  0  0  0  0
   11.6488    0.3902   60.8901 C   0  0  0  0  0  0  0  0  0  0  0  0
   11.5596   -0.2408   62.2656 C   0  0  0  0  0  0  0  0  0  0  0  0
   12.1357    0.6325   63.2280 O   0  0  0  0  0  0  0  0  0  0  0  0
   11.1391    1.3387   63.9542 C   0  0  0  0  0  0  0  0  0  0  0  0
   10.1797    0.3420   64.5752 C   0  0  0  0  0  0  0  0  0  0  0  0
    9.3450    1.0194   65.5068 O   0  0  0  0  0  0  0  0  0  0  0  0
  1  3  2  0
  1  5  1  0
  2  4  2  0
  2  6  1  0
  3  7  1  0
  4  8  1  0
  5  9  2  0
  6 10  2  0
  7 11  2  0
  8 12  2  0
  9 11  1  0
  9 13  1  0
 10 12  1  0
 10 14  1  0
 11 15  1  0
 12 15  1  0
 13 20  1  0
 13 14  2  0
 16 18  1  0
 16 20  1  0
 17 19  1  0
 17 20  1  0
 18 21  1  0
 19 21  1  0
 22 23  1  0
 22 21  1  0
 23 24  1  0
 26 25  1  0
 26 27  1  0
 25 24  1  0
M  CHG  2  14   1  21   1
M  END
>  <minimizedAffinity>  (5) 
-10.34667

>  <CNNscore>  (5) 
0.9187721610

>  <CNNaffinity>  (5) 
7.2482786179

>  <CNN_VS>  (5) 
6.6595168114

>  <CNNaffinity_variance>  (5) 
0.1175986156

>  <salt_bridge_distance>  (5) 
(2.9608089587138164, 2.9608089587138164)

$$$$

     RDKit          3D

 27 30  0  0  0  0  0  0  0  0999 V2000
   14.1367   -1.4600   55.3477 C   0  0  0  0  0  0  0  0  0  0  0  0
   20.6218   -1.9001   58.1773 C   0  0  0  0  0  0  0  0  0  0  0  0
   14.8234   -1.0087   54.2277 C   0  0  0  0  0  0  0  0  0  0  0  0
   20.9611   -1.5141   56.8872 C   0  0  0  0  0  0  0  0  0  0  0  0
   14.6067   -1.1458   56.6234 C   0  0  0  0  0  0  0  0  0  0  0  0
   19.4294   -1.4505   58.7447 C   0  0  0  0  0  0  0  0  0  0  0  0
   15.9831   -0.2532   54.3858 C   0  0  0  0  0  0  0  0  0  0  0  0
   20.1162   -0.6658   56.1745 C   0  0  0  0  0  0  0  0  0  0  0  0
   15.7721   -0.3777   56.8077 C   0  0  0  0  0  0  0  0  0  0  0  0
   18.5383   -0.6323   58.0280 C   0  0  0  0  0  0  0  0  0  0  0  0
   16.4620    0.0565   55.6680 C   0  0  0  0  0  0  0  0  0  0  0  0
   18.9113   -0.2147   56.7385 C   0  0  0  0  0  0  0  0  0  0  0  0
   16.1879   -0.0412   58.1890 C   0  0  0  0  0  0  0  0  0  0  0  0
   17.4123   -0.2240   58.6928 N   0  0  0  0  0  0  0  0  0  0  0  0
   17.9705    0.9842   55.8067 S   0  0  0  0  0  0  0  0  0  0  0  0
   14.7858   -0.2968   60.1902 C   0  0  0  0  0  0  0  0  0  0  0  0
   14.6113    1.7426   58.7953 C   0  0  0  0  0  0  0  0  0  0  0  0
   13.2693   -0.4114   60.2372 C   0  0  0  0  0  0  0  0  0  0  0  0
   13.0929    1.6514   58.8272 C   0  0  0  0  0  0  0  0  0  0  0  0
   15.2178    0.4355   59.0074 N   0  0  0  0  0  0  0  0  0  0  0  0
   12.6652    0.9713   60.1107 N   0  0  0  0  0  0  0  0  0  0  0  0
   11.1696    0.9419   60.2545 C   0  0  0  0  0  0  0  0  0  0  0  0
   10.5416    1.7126   59.1101 C   0  0  0  0  0  0  0  0  0  0  0  0
    9.1839    1.3190   58.9597 O   0  0  0  0  0  0  0  0  0  0  0  0
    8.9887   -0.0364   59.3393 C   0  0  0  0  0  0  0  0  0  0  0  0
    8.8971   -0.8918   58.0905 C   0  0  0  0  0  0  0  0  0  0  0  0
    7.5649   -0.8468   57.5937 O   0  0  0  0  0  0  0  0  0  0  0  0
  1  3  2  0
  1  5  1  0
  2  4  2  0
  2  6  1  0
  3  7  1  0
  4  8  1  0
  5  9  2  0
  6 10  2  0
  7 11  2  0
  8 12  2  0
  9 11  1  0
  9 13  1  0
 10 12  1  0
 10 14  1  0
 11 15  1  0
 12 15  1  0
 13 20  1  0
 13 14  2  0
 16 18  1  0
 16 20  1  0
 17 19  1  0
 17 20  1  0
 18 21  1  0
 19 21  1  0
 22 23  1  0
 22 21  1  0
 23 24  1  0
 26 25  1  0
 26 27  1  0
 25 24  1  0
M  CHG  2  14   1  21   1
M  END
>  <minimizedAffinity>  (6) 
-10.02781

>  <CNNscore>  (6) 
0.8789088726

>  <CNNaffinity>  (6) 
7.0764417648

>  <CNN_VS>  (6) 
6.2195472717

>  <CNNaffinity_variance>  (6) 
0.0874950737

>  <salt_bridge_distance>  (6) 
(3.076808804589585, 3.076808804589585)

$$$$

     RDKit          3D

 27 30  0  0  0  0  0  0  0  0999 V2000
    9.0643   -2.4447   59.5323 C   0  0  0  0  0  0  0  0  0  0  0  0
    6.4471    1.1712   65.0398 C   0  0  0  0  0  0  0  0  0  0  0  0
    8.6127   -3.5508   60.2409 C   0  0  0  0  0  0  0  0  0  0  0  0
    6.0610   -0.1120   65.4045 C   0  0  0  0  0  0  0  0  0  0  0  0
    9.5540   -1.3330   60.2188 C   0  0  0  0  0  0  0  0  0  0  0  0
    7.6315    1.3630   64.3282 C   0  0  0  0  0  0  0  0  0  0  0  0
    8.6425   -3.5388   61.6336 C   0  0  0  0  0  0  0  0  0  0  0  0
    6.8684   -1.1978   65.0723 C   0  0  0  0  0  0  0  0  0  0  0  0
    9.6006   -1.3011   61.6255 C   0  0  0  0  0  0  0  0  0  0  0  0
    8.4387    0.2788   63.9407 C   0  0  0  0  0  0  0  0  0  0  0  0
    9.1266   -2.4183   62.3260 C   0  0  0  0  0  0  0  0  0  0  0  0
    8.0592   -1.0113   64.3506 C   0  0  0  0  0  0  0  0  0  0  0  0
   10.1766   -0.1083   62.2886 C   0  0  0  0  0  0  0  0  0  0  0  0
    9.5949    0.5843   63.2726 N   0  0  0  0  0  0  0  0  0  0  0  0
    9.0976   -2.4432   64.1019 S   0  0  0  0  0  0  0  0  0  0  0  0
   11.4364    1.3925   60.8064 C   0  0  0  0  0  0  0  0  0  0  0  0
   12.6324   -0.1713   62.3097 C   0  0  0  0  0  0  0  0  0  0  0  0
   12.3380    0.9910   59.6484 C   0  0  0  0  0  0  0  0  0  0  0  0
   13.5479   -0.5899   61.1688 C   0  0  0  0  0  0  0  0  0  0  0  0
   11.3632    0.3327   61.8030 N   0  0  0  0  0  0  0  0  0  0  0  0
   13.6832    0.5621   60.1954 N   0  0  0  0  0  0  0  0  0  0  0  0
   14.6590    0.2509   59.0956 C   0  0  0  0  0  0  0  0  0  0  0  0
   15.5989    1.4263   58.9132 C   0  0  0  0  0  0  0  0  0  0  0  0
   16.7237    1.0212   58.1441 O   0  0  0  0  0  0  0  0  0  0  0  0
   16.3933    0.8850   56.7687 C   0  0  0  0  0  0  0  0  0  0  0  0
   17.6724    0.8175   55.9568 C   0  0  0  0  0  0  0  0  0  0  0  0
   18.5327    1.8773   56.3570 O   0  0  0  0  0  0  0  0  0  0  0  0
  1  3  2  0
  1  5  1  0
  2  4  2  0
  2  6  1  0
  3  7  1  0
  4  8  1  0
  5  9  2  0
  6 10  2  0
  7 11  2  0
  8 12  2  0
  9 11  1  0
  9 13  1  0
 10 12  1  0
 10 14  1  0
 11 15  1  0
 12 15  1  0
 13 20  1  0
 13 14  2  0
 16 18  1  0
 16 20  1  0
 17 19  1  0
 17 20  1  0
 18 21  1  0
 19 21  1  0
 22 23  1  0
 22 21  1  0
 23 24  1  0
 26 25  1  0
 26 27  1  0
 25 24  1  0
M  CHG  2  14   1  21   1
M  END
>  <minimizedAffinity>  (7) 
-8.64895

>  <CNNscore>  (7) 
0.4404420555

>  <CNNaffinity>  (7) 
6.4204254150

>  <CNN_VS>  (7) 
2.8278253078

>  <CNNaffinity_variance>  (7) 
0.0446597524

>  <salt_bridge_distance>  (7) 
(3.0865504709950877, 3.0865504709950877)

$$$$

     RDKit          3D

 27 30  0  0  0  0  0  0  0  0999 V2000
    9.0223   -2.3102   59.3050 C   0  0  0  0  0  0  0  0  0  0  0  0
    6.6389    1.0588   65.0693 C   0  0  0  0  0  0  0  0  0  0  0  0
    8.5857   -3.4453   59.9763 C   0  0  0  0  0  0  0  0  0  0  0  0
    6.2537   -0.2372   65.3864 C   0  0  0  0  0  0  0  0  0  0  0  0
    9.5470   -1.2364   60.0254 C   0  0  0  0  0  0  0  0  0  0  0  0
    7.7988    1.2751   64.3251 C   0  0  0  0  0  0  0  0  0  0  0  0
    8.6655   -3.5001   61.3659 C   0  0  0  0  0  0  0  0  0  0  0  0
    7.0383   -1.3122   64.9740 C   0  0  0  0  0  0  0  0  0  0  0  0
    9.6442   -1.2722   61.4295 C   0  0  0  0  0  0  0  0  0  0  0  0
    8.5812    0.2044   63.8576 C   0  0  0  0  0  0  0  0  0  0  0  0
    9.1849   -2.4179   62.0928 C   0  0  0  0  0  0  0  0  0  0  0  0
    8.2042   -1.1008   64.2193 C   0  0  0  0  0  0  0  0  0  0  0  0
   10.2550   -0.1170   62.1271 C   0  0  0  0  0  0  0  0  0  0  0  0
    9.7156    0.5322   63.1633 N   0  0  0  0  0  0  0  0  0  0  0  0
    9.2192   -2.5274   63.8653 S   0  0  0  0  0  0  0  0  0  0  0  0
   11.4735    1.4274   60.6554 C   0  0  0  0  0  0  0  0  0  0  0  0
   12.7102   -0.1839   62.0731 C   0  0  0  0  0  0  0  0  0  0  0  0
   12.3395    1.0609   59.4592 C   0  0  0  0  0  0  0  0  0  0  0  0
   13.5904   -0.5680   60.8931 C   0  0  0  0  0  0  0  0  0  0  0  0
   11.4276    0.3372   61.6203 N   0  0  0  0  0  0  0  0  0  0  0  0
   13.6994    0.6135   59.9522 N   0  0  0  0  0  0  0  0  0  0  0  0
   14.6414    0.3354   58.8148 C   0  0  0  0  0  0  0  0  0  0  0  0
   13.8550   -0.1945   57.6319 C   0  0  0  0  0  0  0  0  0  0  0  0
   14.7407   -0.8223   56.7143 O   0  0  0  0  0  0  0  0  0  0  0  0
   14.0317   -1.5160   55.6967 C   0  0  0  0  0  0  0  0  0  0  0  0
   14.6979   -1.2504   54.3605 C   0  0  0  0  0  0  0  0  0  0  0  0
   14.0228   -1.9897   53.3501 O   0  0  0  0  0  0  0  0  0  0  0  0
  1  3  2  0
  1  5  1  0
  2  4  2  0
  2  6  1  0
  3  7  1  0
  4  8  1  0
  5  9  2  0
  6 10  2  0
  7 11  2  0
  8 12  2  0
  9 11  1  0
  9 13  1  0
 10 12  1  0
 10 14  1  0
 11 15  1  0
 12 15  1  0
 13 20  1  0
 13 14  2  0
 16 18  1  0
 16 20  1  0
 17 19  1  0
 17 20  1  0
 18 21  1  0
 19 21  1  0
 22 23  1  0
 22 21  1  0
 23 24  1  0
 26 25  1  0
 26 27  1  0
 25 24  1  0
M  CHG  2  14   1  21   1
M  END
>  <minimizedAffinity>  (8) 
-8.44674

>  <CNNscore>  (8) 
0.3797729015

>  <CNNaffinity>  (8) 
6.3783645630

>  <CNN_VS>  (8) 
2.4223299026

>  <CNNaffinity_variance>  (8) 
0.0167311653

>  <salt_bridge_distance>  (8) 
(3.1858568470664217, 3.1858568470664217)

$$$$

     RDKit          3D

 20 22  0  0  0  0  0  0  0  0999 V2000
    9.3259   -2.3171   59.2212 C   0  0  0  0  0  0  0  0  0  0  0  0
    8.3230    1.0008   65.6887 C   0  0  0  0  0  0  0  0  0  0  0  0
    8.7413   -3.5074   59.6264 C   0  0  0  0  0  0  0  0  0  0  0  0
    7.7105   -0.0979   66.2720 C   0  0  0  0  0  0  0  0  0  0  0  0
    9.6173   -1.3260   60.1625 C   0  0  0  0  0  0  0  0  0  0  0  0
    8.9532    0.8721   64.4479 C   0  0  0  0  0  0  0  0  0  0  0  0
    8.4434   -3.7014   60.9710 C   0  0  0  0  0  0  0  0  0  0  0  0
    7.7238   -1.3213   65.6104 C   0  0  0  0  0  0  0  0  0  0  0  0
    9.3396   -1.4950   61.5368 C   0  0  0  0  0  0  0  0  0  0  0  0
    8.9961   -0.3574   63.7548 C   0  0  0  0  0  0  0  0  0  0  0  0
    8.7298   -2.7054   61.9217 C   0  0  0  0  0  0  0  0  0  0  0  0
    8.3521   -1.4551   64.3595 C   0  0  0  0  0  0  0  0  0  0  0  0
    9.6241   -0.4848   62.4900 N   0  0  0  0  0  0  0  0  0  0  0  0
    8.3257   -3.0747   63.6172 S   0  0  0  0  0  0  0  0  0  0  0  0
   10.5942    0.5502   62.1096 C   0  0  0  0  0  0  0  0  0  0  0  0
   11.9882    0.2100   62.6299 C   0  0  0  0  0  0  0  0  0  0  0  0
   12.8189   -0.5497   61.6032 C   0  0  0  0  0  0  0  0  0  0  0  0
   15.1261    0.0554   60.8873 C   0  0  0  0  0  0  0  0  0  0  0  0
   13.1833    0.6214   59.4362 C   0  0  0  0  0  0  0  0  0  0  0  0
   13.6606    0.4142   60.8528 N   0  0  0  0  0  0  0  0  0  0  0  0
  1  3  2  0
  1  5  1  0
  2  4  2  0
  2  6  1  0
  3  7  1  0
  4  8  1  0
  5  9  2  0
  6 10  2  0
  7 11  2  0
  8 12  2  0
  9 11  1  0
  9 13  1  0
 10 12  1  0
 10 13  1  0
 11 14  1  0
 12 14  1  0
 18 20  1  0
 19 20  1  0
 16 15  1  0
 16 17  1  0
 15 13  1  0
 17 20  1  0
M  CHG  1  20   1
M  END
>  <minimizedAffinity>  (9) 
-7.28709

>  <CNNscore>  (9) 
0.7467709780

>  <CNNaffinity>  (9) 
6.0314092636

>  <CNN_VS>  (9) 
4.5040812492

>  <CNNaffinity_variance>  (9) 
0.0828790367

>  <salt_bridge_distance>  (9) 
(2.915489708436645, 2.915489708436645)

$$$$

     RDKit          3D

 20 22  0  0  0  0  0  0  0  0999 V2000
   12.1456   -0.9130   54.7465 C   0  0  0  0  0  0  0  0  0  0  0  0
   18.0258   -0.9800   59.1352 C   0  0  0  0  0  0  0  0  0  0  0  0
   12.8811   -0.6747   53.5954 C   0  0  0  0  0  0  0  0  0  0  0  0
   18.9234   -0.7440   58.1051 C   0  0  0  0  0  0  0  0  0  0  0  0
   12.7565   -0.8115   55.9993 C   0  0  0  0  0  0  0  0  0  0  0  0
   16.6525   -0.8553   58.9072 C   0  0  0  0  0  0  0  0  0  0  0  0
   14.2275   -0.3419   53.6995 C   0  0  0  0  0  0  0  0  0  0  0  0
   18.4457   -0.3902   56.8477 C   0  0  0  0  0  0  0  0  0  0  0  0
   14.1177   -0.4637   56.1417 C   0  0  0  0  0  0  0  0  0  0  0  0
   16.1341   -0.4862   57.6467 C   0  0  0  0  0  0  0  0  0  0  0  0
   14.8485   -0.2434   54.9574 C   0  0  0  0  0  0  0  0  0  0  0  0
   17.0648   -0.2682   56.6115 C   0  0  0  0  0  0  0  0  0  0  0  0
   14.7405   -0.3725   57.4121 N   0  0  0  0  0  0  0  0  0  0  0  0
   16.5709    0.2124   54.9684 S   0  0  0  0  0  0  0  0  0  0  0  0
   13.8682   -0.2181   58.5835 C   0  0  0  0  0  0  0  0  0  0  0  0
   13.6461    1.2567   58.9085 C   0  0  0  0  0  0  0  0  0  0  0  0
   12.1716    1.6391   58.8805 C   0  0  0  0  0  0  0  0  0  0  0  0
   10.8165    3.1427   60.3314 C   0  0  0  0  0  0  0  0  0  0  0  0
   11.0947    0.7441   60.9395 C   0  0  0  0  0  0  0  0  0  0  0  0
   11.7226    1.9378   60.2625 N   0  0  0  0  0  0  0  0  0  0  0  0
  1  3  2  0
  1  5  1  0
  2  4  2  0
  2  6  1  0
  3  7  1  0
  4  8  1  0
  5  9  2  0
  6 10  2  0
  7 11  2  0
  8 12  2  0
  9 11  1  0
  9 13  1  0
 10 12  1  0
 10 13  1  0
 11 14  1  0
 12 14  1  0
 18 20  1  0
 19 20  1  0
 16 15  1  0
 16 17  1  0
 15 13  1  0
 17 20  1  0
M  CHG  1  20   1
M  END
>  <minimizedAffinity>  (10) 
-7.38159

>  <CNNscore>  (10) 
0.5199132562

>  <CNNaffinity>  (10) 
6.0580682755

>  <CNN_VS>  (10) 
3.1496698856

>  <CNNaffinity_variance>  (10) 
0.1116664186

>  <salt_bridge_distance>  (10) 
(3.0047599321742813, 3.0047599321742813)

$$$$

     RDKit          3D

 20 22  0  0  0  0  0  0  0  0999 V2000
   17.5687    1.2983   57.0051 C   0  0  0  0  0  0  0  0  0  0  0  0
   10.3880   -0.1197   57.5249 C   0  0  0  0  0  0  0  0  0  0  0  0
   17.7209    0.6127   55.8095 C   0  0  0  0  0  0  0  0  0  0  0  0
   10.3423   -0.8439   56.3434 C   0  0  0  0  0  0  0  0  0  0  0  0
   16.3784    1.1849   57.7287 C   0  0  0  0  0  0  0  0  0  0  0  0
   11.6208    0.2450   58.0733 C   0  0  0  0  0  0  0  0  0  0  0  0
   16.6801   -0.1795   55.3367 C   0  0  0  0  0  0  0  0  0  0  0  0
   11.5291   -1.1964   55.7095 C   0  0  0  0  0  0  0  0  0  0  0  0
   15.3067    0.3799   57.2841 C   0  0  0  0  0  0  0  0  0  0  0  0
   12.8444   -0.1068   57.4626 C   0  0  0  0  0  0  0  0  0  0  0  0
   15.4783   -0.2930   56.0582 C   0  0  0  0  0  0  0  0  0  0  0  0
   12.7719   -0.8278   56.2542 C   0  0  0  0  0  0  0  0  0  0  0  0
   14.0946    0.2744   58.0121 N   0  0  0  0  0  0  0  0  0  0  0  0
   14.2249   -1.3541   55.3673 S   0  0  0  0  0  0  0  0  0  0  0  0
   14.1216    0.6568   59.4298 C   0  0  0  0  0  0  0  0  0  0  0  0
   14.1509   -0.5770   60.3279 C   0  0  0  0  0  0  0  0  0  0  0  0
   13.7450   -0.2584   61.7614 C   0  0  0  0  0  0  0  0  0  0  0  0
   11.3983   -0.9207   61.2549 C   0  0  0  0  0  0  0  0  0  0  0  0
   11.8736    0.6366   63.1389 C   0  0  0  0  0  0  0  0  0  0  0  0
   12.3197    0.1526   61.7808 N   0  0  0  0  0  0  0  0  0  0  0  0
  1  3  2  0
  1  5  1  0
  2  4  2  0
  2  6  1  0
  3  7  1  0
  4  8  1  0
  5  9  2  0
  6 10  2  0
  7 11  2  0
  8 12  2  0
  9 11  1  0
  9 13  1  0
 10 12  1  0
 10 13  1  0
 11 14  1  0
 12 14  1  0
 18 20  1  0
 19 20  1  0
 16 15  1  0
 16 17  1  0
 15 13  1  0
 17 20  1  0
M  CHG  1  20   1
M  END
>  <minimizedAffinity>  (11) 
-7.04282

>  <CNNscore>  (11) 
0.5004336238

>  <CNNaffinity>  (11) 
5.8758859634

>  <CNN_VS>  (11) 
2.9404909611

>  <CNNaffinity_variance>  (11) 
0.3176615536

>  <salt_bridge_distance>  (11) 
(3.3834335651819742, 3.3834335651819742)

$$$$

     RDKit          3D

 20 22  0  0  0  0  0  0  0  0999 V2000
    9.5152    2.9409   60.3855 C   0  0  0  0  0  0  0  0  0  0  0  0
    8.5530   -3.3667   64.0092 C   0  0  0  0  0  0  0  0  0  0  0  0
    9.1277    2.4150   59.1624 C   0  0  0  0  0  0  0  0  0  0  0  0
    8.1386   -4.0662   62.8861 C   0  0  0  0  0  0  0  0  0  0  0  0
    9.7388    2.0908   61.4720 C   0  0  0  0  0  0  0  0  0  0  0  0
    9.1018   -2.0885   63.8729 C   0  0  0  0  0  0  0  0  0  0  0  0
    8.9584    1.0409   59.0302 C   0  0  0  0  0  0  0  0  0  0  0  0
    8.2680   -3.4837   61.6297 C   0  0  0  0  0  0  0  0  0  0  0  0
    9.5883    0.6905   61.3694 C   0  0  0  0  0  0  0  0  0  0  0  0
    9.2588   -1.4727   62.6119 C   0  0  0  0  0  0  0  0  0  0  0  0
    9.1771    0.1814   60.1216 C   0  0  0  0  0  0  0  0  0  0  0  0
    8.8148   -2.1961   61.4873 C   0  0  0  0  0  0  0  0  0  0  0  0
    9.8035   -0.1708   62.4748 N   0  0  0  0  0  0  0  0  0  0  0  0
    8.9523   -1.5615   59.8281 S   0  0  0  0  0  0  0  0  0  0  0  0
   10.5946    0.3525   63.5961 C   0  0  0  0  0  0  0  0  0  0  0  0
   12.0778    0.4064   63.2399 C   0  0  0  0  0  0  0  0  0  0  0  0
   12.4011   -0.3986   61.9874 C   0  0  0  0  0  0  0  0  0  0  0  0
   14.8749   -0.1875   61.7937 C   0  0  0  0  0  0  0  0  0  0  0  0
   13.4406    0.0792   59.7757 C   0  0  0  0  0  0  0  0  0  0  0  0
   13.5278    0.2498   61.2727 N   0  0  0  0  0  0  0  0  0  0  0  0
  1  3  2  0
  1  5  1  0
  2  4  2  0
  2  6  1  0
  3  7  1  0
  4  8  1  0
  5  9  2  0
  6 10  2  0
  7 11  2  0
  8 12  2  0
  9 11  1  0
  9 13  1  0
 10 12  1  0
 10 13  1  0
 11 14  1  0
 12 14  1  0
 18 20  1  0
 19 20  1  0
 16 15  1  0
 16 17  1  0
 15 13  1  0
 17 20  1  0
M  CHG  1  20   1
M  END
>  <minimizedAffinity>  (12) 
-6.42518

>  <CNNscore>  (12) 
0.4597131014

>  <CNNaffinity>  (12) 
6.1010594368

>  <CNN_VS>  (12) 
2.8047368526

>  <CNNaffinity_variance>  (12) 
0.0573263466

>  <salt_bridge_distance>  (12) 
(2.966624777419618, 2.966624777419618)

$$$$

     RDKit          3D

 20 22  0  0  0  0  0  0  0  0999 V2000
    7.8844   -1.5194   57.9651 C   0  0  0  0  0  0  0  0  0  0  0  0
   10.2465    0.3673   64.6512 C   0  0  0  0  0  0  0  0  0  0  0  0
    7.2187   -2.6519   58.4088 C   0  0  0  0  0  0  0  0  0  0  0  0
    9.6455   -0.7129   65.2792 C   0  0  0  0  0  0  0  0  0  0  0  0
    8.7451   -0.8328   58.8260 C   0  0  0  0  0  0  0  0  0  0  0  0
   10.3105    0.4170   63.2559 C   0  0  0  0  0  0  0  0  0  0  0  0
    7.4100   -3.0916   59.7144 C   0  0  0  0  0  0  0  0  0  0  0  0
    9.1042   -1.7381   64.5106 C   0  0  0  0  0  0  0  0  0  0  0  0
    8.9717   -1.2587   60.1532 C   0  0  0  0  0  0  0  0  0  0  0  0
    9.7821   -0.6120   62.4459 C   0  0  0  0  0  0  0  0  0  0  0  0
    8.2709   -2.4016   60.5864 C   0  0  0  0  0  0  0  0  0  0  0  0
    9.1614   -1.6907   63.1064 C   0  0  0  0  0  0  0  0  0  0  0  0
    9.8356   -0.5552   61.0302 N   0  0  0  0  0  0  0  0  0  0  0  0
    8.4556   -3.0705   62.2273 S   0  0  0  0  0  0  0  0  0  0  0  0
   10.8160    0.3566   60.4267 C   0  0  0  0  0  0  0  0  0  0  0  0
   12.1837   -0.3112   60.3106 C   0  0  0  0  0  0  0  0  0  0  0  0
   13.0639    0.3531   59.2593 C   0  0  0  0  0  0  0  0  0  0  0  0
   15.0399   -0.3431   60.6057 C   0  0  0  0  0  0  0  0  0  0  0  0
   15.2581    1.4821   58.9261 C   0  0  0  0  0  0  0  0  0  0  0  0
   14.3336    0.7846   59.8937 N   0  0  0  0  0  0  0  0  0  0  0  0
  1  3  2  0
  1  5  1  0
  2  4  2  0
  2  6  1  0
  3  7  1  0
  4  8  1  0
  5  9  2  0
  6 10  2  0
  7 11  2  0
  8 12  2  0
  9 11  1  0
  9 13  1  0
 10 12  1  0
 10 13  1  0
 11 14  1  0
 12 14  1  0
 18 20  1  0
 19 20  1  0
 16 15  1  0
 16 17  1  0
 15 13  1  0
 17 20  1  0
M  CHG  1  20   1
M  END
>  <minimizedAffinity>  (13) 
-6.99108

>  <CNNscore>  (13) 
0.3547224402

>  <CNNaffinity>  (13) 
5.6224985123

>  <CNN_VS>  (13) 
1.9944263697

>  <CNNaffinity_variance>  (13) 
0.2085344791

>  <salt_bridge_distance>  (13) 
(3.1057841216027855, 3.1057841216027855)

$$$$

     RDKit          3D

 26 29  0  0  0  0  0  0  0  0999 V2000
   14.0145   -0.8877   62.0581 C   0  0  0  0  0  0  0  0  0  0  0  0
   15.2774   -0.3763   62.3156 C   0  0  0  0  0  0  0  0  0  0  0  0
   13.4534   -0.7548   60.7851 C   0  0  0  0  0  0  0  0  0  0  0  0
   15.9789    0.2613   61.2979 C   0  0  0  0  0  0  0  0  0  0  0  0
   16.3405    0.9495   56.0920 C   0  0  0  0  0  0  0  0  0  0  0  0
   15.7952    0.6097   54.8584 C   0  0  0  0  0  0  0  0  0  0  0  0
   13.7876   -0.1198   55.9765 C   0  0  0  0  0  0  0  0  0  0  0  0
   14.1327   -0.1028   59.7327 C   0  0  0  0  0  0  0  0  0  0  0  0
   14.3058    0.2256   57.2439 C   0  0  0  0  0  0  0  0  0  0  0  0
   15.4211    0.3934   60.0138 C   0  0  0  0  0  0  0  0  0  0  0  0
   15.6112    0.7545   57.2783 C   0  0  0  0  0  0  0  0  0  0  0  0
   14.5186    0.0714   54.8009 C   0  0  0  0  0  0  0  0  0  0  0  0
   13.5688    0.0205   58.4377 N   0  0  0  0  0  0  0  0  0  0  0  0
   16.4020    1.2484   58.7967 S   0  0  0  0  0  0  0  0  0  0  0  0
   13.5835    1.2881   52.5655 C   0  0  0  0  0  0  0  0  0  0  0  0
   12.4403   -0.9384   53.5029 O   0  0  0  0  0  0  0  0  0  0  0  0
   13.8096   -0.3873   53.2185 S   0  0  0  0  0  0  0  0  0  0  0  0
   12.1148   -0.1469   58.3147 C   0  0  0  0  0  0  0  0  0  0  0  0
   11.3473    1.0846   58.7806 C   0  0  0  0  0  0  0  0  0  0  0  0
    8.6572    2.4465   59.8370 C   0  0  0  0  0  0  0  0  0  0  0  0
    9.2433    3.3725   60.8951 C   0  0  0  0  0  0  0  0  0  0  0  0
    9.1244    1.0084   60.0359 C   0  0  0  0  0  0  0  0  0  0  0  0
   10.7598    3.2770   60.9555 C   0  0  0  0  0  0  0  0  0  0  0  0
   10.6470    0.8715   60.1223 C   0  0  2  0  0  0  0  0  0  0  0  0
   11.0377    1.3656   62.5680 C   0  0  0  0  0  0  0  0  0  0  0  0
   11.2096    1.8460   61.1480 N   0  0  2  0  0  0  0  0  0  0  0  0
  1  2  2  0
  1  3  1  0
  2  4  1  0
  3  8  2  0
  4 10  2  0
  5  6  1  0
  5 11  2  0
  6 12  2  0
  7  9  2  0
  7 12  1  0
  8 10  1  0
  8 13  1  0
  9 11  1  0
  9 13  1  0
 10 14  1  0
 11 14  1  0
 12 17  1  0
 20 21  1  0
 20 22  1  0
 21 23  1  0
 22 24  1  0
 23 26  1  0
 24 19  1  6
 24 26  1  0
 26 25  1  1
 17 15  1  6
 19 18  1  0
 18 13  1  0
 16 17  2  0
M  CHG  1  26   1
M  END
>  <minimizedAffinity>  (14) 
-7.70610

>  <CNNscore>  (14) 
0.3720189631

>  <CNNaffinity>  (14) 
6.7449250221

>  <CNN_VS>  (14) 
2.5092399120

>  <CNNaffinity_variance>  (14) 
0.0787917003

>  <salt_bridge_distance>  (14) 
(3.1095805762192428, 3.1095805762192428)

$$$$

     RDKit          3D

 21 23  0  0  0  0  0  0  0  0999 V2000
    9.2179    2.0005   58.3597 C   0  0  0  0  0  0  0  0  0  0  0  0
    9.1996   -1.4195   65.0896 C   0  0  0  0  0  0  0  0  0  0  0  0
   10.2187    2.6847   59.0385 C   0  0  0  0  0  0  0  0  0  0  0  0
   10.2018   -0.4700   65.2465 C   0  0  0  0  0  0  0  0  0  0  0  0
    8.8643    0.7107   58.7570 C   0  0  0  0  0  0  0  0  0  0  0  0
    8.8506   -1.8584   63.8121 C   0  0  0  0  0  0  0  0  0  0  0  0
   10.8708    2.0767   60.1102 C   0  0  0  0  0  0  0  0  0  0  0  0
   10.8600    0.0354   64.1264 C   0  0  0  0  0  0  0  0  0  0  0  0
    9.4999    0.0865   59.8453 C   0  0  0  0  0  0  0  0  0  0  0  0
    9.4924   -1.3488   62.6691 C   0  0  0  0  0  0  0  0  0  0  0  0
   10.5303    0.7727   60.5163 C   0  0  0  0  0  0  0  0  0  0  0  0
   10.5241   -0.4046   62.8321 C   0  0  0  0  0  0  0  0  0  0  0  0
    9.0853   -1.2898   60.1687 C   0  0  0  0  0  0  0  0  0  0  0  0
    9.0822   -1.8979   61.3649 C   0  0  0  0  0  0  0  0  0  0  0  0
   11.2366    0.1598   61.6639 C   0  0  0  0  0  0  0  0  0  0  0  0
   12.5770    0.0452   61.6092 C   0  0  0  0  0  0  0  0  0  0  0  0
   13.4044   -0.5547   62.7025 C   0  0  0  0  0  0  0  0  0  0  0  0
   14.8736   -0.6898   62.3206 C   0  0  0  0  0  0  0  0  0  0  0  0
   16.5302    0.7303   61.1203 C   0  0  0  0  0  0  0  0  0  0  0  0
   14.9471   -0.6957   59.8315 C   0  0  0  0  0  0  0  0  0  0  0  0
   15.1599    0.0989   61.0967 N   0  0  0  0  0  0  0  0  0  0  0  0
  1  3  2  0
  1  5  1  0
  2  4  2  0
  2  6  1  0
  3  7  1  0
  4  8  1  0
  5  9  2  0
  6 10  2  0
  7 11  2  0
  8 12  2  0
  9 11  1  0
  9 13  1  0
 10 12  1  0
 10 14  1  0
 11 15  1  0
 12 15  1  0
 13 14  2  0
 15 16  2  0
 16 17  1  0
 19 21  1  0
 20 21  1  0
 17 18  1  0
 18 21  1  0
M  CHG  1  21   1
M  END
>  <minimizedAffinity>  (15) 
-5.12857

>  <CNNscore>  (15) 
0.4057255685

>  <CNNaffinity>  (15) 
6.1586632729

>  <CNN_VS>  (15) 
2.4987270832

>  <CNNaffinity_variance>  (15) 
0.5708252192

>  <salt_bridge_distance>  (15) 
(3.3538551116588207, 3.3538551116588207)

$$$$

     RDKit          3D

 21 23  0  0  0  0  0  0  0  0999 V2000
    7.0453   -2.5061   58.4127 C   0  0  0  0  0  0  0  0  0  0  0  0
    9.1195   -0.4742   65.3811 C   0  0  0  0  0  0  0  0  0  0  0  0
    7.7250   -1.3167   58.1808 C   0  0  0  0  0  0  0  0  0  0  0  0
    9.6383    0.5576   64.6086 C   0  0  0  0  0  0  0  0  0  0  0  0
    7.3082   -3.2440   59.5673 C   0  0  0  0  0  0  0  0  0  0  0  0
    8.8664   -1.7179   64.8016 C   0  0  0  0  0  0  0  0  0  0  0  0
    8.6726   -0.8685   59.0997 C   0  0  0  0  0  0  0  0  0  0  0  0
    9.9107    0.3438   63.2583 C   0  0  0  0  0  0  0  0  0  0  0  0
    8.2494   -2.8004   60.5135 C   0  0  0  0  0  0  0  0  0  0  0  0
    9.1200   -1.9480   63.4375 C   0  0  0  0  0  0  0  0  0  0  0  0
    8.9542   -1.6071   60.2644 C   0  0  0  0  0  0  0  0  0  0  0  0
    9.6683   -0.9082   62.6624 C   0  0  0  0  0  0  0  0  0  0  0  0
    8.4867   -3.6638   61.6835 C   0  0  0  0  0  0  0  0  0  0  0  0
    8.8556   -3.3028   62.9222 C   0  0  0  0  0  0  0  0  0  0  0  0
    9.9601   -1.0981   61.2238 C   0  0  0  0  0  0  0  0  0  0  0  0
   11.2119   -0.8685   60.7842 C   0  0  0  0  0  0  0  0  0  0  0  0
   12.3163   -0.3550   61.6538 C   0  0  0  0  0  0  0  0  0  0  0  0
   13.6978   -0.7353   61.1348 C   0  0  0  0  0  0  0  0  0  0  0  0
   15.8788    0.3003   60.5242 C   0  0  0  0  0  0  0  0  0  0  0  0
   13.8309    0.8488   59.2182 C   0  0  0  0  0  0  0  0  0  0  0  0
   14.3785    0.4554   60.5682 N   0  0  0  0  0  0  0  0  0  0  0  0
  1  3  2  0
  1  5  1  0
  2  4  2  0
  2  6  1  0
  3  7  1  0
  4  8  1  0
  5  9  2  0
  6 10  2  0
  7 11  2  0
  8 12  2  0
  9 11  1  0
  9 13  1  0
 10 12  1  0
 10 14  1  0
 11 15  1  0
 12 15  1  0
 13 14  2  0
 15 16  2  0
 16 17  1  0
 19 21  1  0
 20 21  1  0
 17 18  1  0
 18 21  1  0
M  CHG  1  21   1
M  END
>  <minimizedAffinity>  (16) 
-8.94650

>  <CNNscore>  (16) 
0.3985533714

>  <CNNaffinity>  (16) 
5.7874345779

>  <CNN_VS>  (16) 
2.3066015244

>  <CNNaffinity_variance>  (16) 
0.0961795002

>  <salt_bridge_distance>  (16) 
(3.0113016869785736, 3.0113016869785736)

$$$$

     RDKit          3D

 21 23  0  0  0  0  0  0  0  0999 V2000
    7.0147   -2.4971   57.9160 C   0  0  0  0  0  0  0  0  0  0  0  0
    7.2395   -1.0644   65.3245 C   0  0  0  0  0  0  0  0  0  0  0  0
    7.7675   -1.3302   57.9659 C   0  0  0  0  0  0  0  0  0  0  0  0
    7.9748   -0.0087   64.7997 C   0  0  0  0  0  0  0  0  0  0  0  0
    6.9413   -3.3261   59.0358 C   0  0  0  0  0  0  0  0  0  0  0  0
    7.1103   -2.2501   64.6007 C   0  0  0  0  0  0  0  0  0  0  0  0
    8.4526   -0.9959   59.1331 C   0  0  0  0  0  0  0  0  0  0  0  0
    8.5869   -0.1411   63.5543 C   0  0  0  0  0  0  0  0  0  0  0  0
    7.6128   -2.9979   60.2272 C   0  0  0  0  0  0  0  0  0  0  0  0
    7.7074   -2.3970   63.3358 C   0  0  0  0  0  0  0  0  0  0  0  0
    8.3945   -1.8274   60.2673 C   0  0  0  0  0  0  0  0  0  0  0  0
    8.4721   -1.3346   62.8169 C   0  0  0  0  0  0  0  0  0  0  0  0
    7.5069   -3.9518   61.3450 C   0  0  0  0  0  0  0  0  0  0  0  0
    7.5470   -3.6973   62.6620 C   0  0  0  0  0  0  0  0  0  0  0  0
    9.1269   -1.4382   61.4935 C   0  0  0  0  0  0  0  0  0  0  0  0
   10.4567   -1.2421   61.4152 C   0  0  0  0  0  0  0  0  0  0  0  0
   11.3080   -0.8471   62.5810 C   0  0  0  0  0  0  0  0  0  0  0  0
   12.2847    0.2727   62.2426 C   0  0  0  0  0  0  0  0  0  0  0  0
   10.7662    2.2391   62.0709 C   0  0  0  0  0  0  0  0  0  0  0  0
   11.4298    1.3699   64.3080 C   0  0  0  0  0  0  0  0  0  0  0  0
   11.8433    1.5443   62.8672 N   0  0  0  0  0  0  0  0  0  0  0  0
  1  3  2  0
  1  5  1  0
  2  4  2  0
  2  6  1  0
  3  7  1  0
  4  8  1  0
  5  9  2  0
  6 10  2  0
  7 11  2  0
  8 12  2  0
  9 11  1  0
  9 13  1  0
 10 12  1  0
 10 14  1  0
 11 15  1  0
 12 15  1  0
 13 14  2  0
 15 16  2  0
 16 17  1  0
 19 21  1  0
 20 21  1  0
 17 18  1  0
 18 21  1  0
M  CHG  1  21   1
M  END
>  <minimizedAffinity>  (17) 
-7.14711

>  <CNNscore>  (17) 
0.3496690094

>  <CNNaffinity>  (17) 
5.6274309158

>  <CNN_VS>  (17) 
1.9677381516

>  <CNNaffinity_variance>  (17) 
0.0746320337

>  <salt_bridge_distance>  (17) 
(2.7952419609042796, 2.7952419609042796)

$$$$

     RDKit          3D

 33 37  0  0  0  0  0  0  0  0999 V2000
    9.4063   -2.5827   61.4623 C   0  0  0  0  0  0  0  0  0  0  0  0
    8.4100   -3.5577   61.4822 C   0  0  0  0  0  0  0  0  0  0  0  0
    7.4439   -2.5117   63.4240 C   0  0  0  0  0  0  0  0  0  0  0  0
    9.4385   -1.5550   62.4232 C   0  0  0  0  0  0  0  0  0  0  0  0
    8.4423   -1.5197   63.4193 C   0  0  0  0  0  0  0  0  0  0  0  0
    7.4291   -3.5220   62.4626 C   0  0  0  0  0  0  0  0  0  0  0  0
   10.4773    0.4376   63.3457 C   0  0  0  0  0  0  0  0  0  0  0  0
   10.4891   -0.5192   62.4090 C   0  0  0  0  0  0  0  0  0  0  0  0
    9.4482    0.5094   64.4100 C   0  0  0  0  0  0  0  0  0  0  0  0
    8.4654   -0.4788   64.4044 N   0  0  0  0  0  0  0  0  0  0  0  0
    9.5246    1.4293   65.2253 O   0  0  0  0  0  0  0  0  0  0  0  0
    6.4695   -4.4557   62.4866 F   0  0  0  0  0  0  0  0  0  0  0  0
   11.5587   -0.5401   61.3545 C   0  0  0  0  0  0  0  0  0  0  0  0
   12.9086   -0.2031   61.9534 C   0  0  0  0  0  0  0  0  0  0  0  0
   14.3198    0.4544   58.4630 C   0  0  0  0  0  0  0  0  0  0  0  0
   16.1781    0.5446   60.1165 C   0  0  0  0  0  0  0  0  0  0  0  0
   13.4194   -0.1835   59.5123 C   0  0  0  0  0  0  0  0  0  0  0  0
   15.2715   -0.0891   61.1641 C   0  0  0  0  0  0  0  0  0  0  0  0
   15.7332    0.1916   58.7646 N   0  0  0  0  0  0  0  0  0  0  0  0
   13.8400    0.2879   60.8811 N   0  0  0  0  0  0  0  0  0  0  0  0
   18.4179    0.3714   55.5575 C   0  0  0  0  0  0  0  0  0  0  0  0
   18.4929   -1.0853   58.9165 C   0  0  0  0  0  0  0  0  0  0  0  0
   17.1528    0.9320   55.5454 C   0  0  0  0  0  0  0  0  0  0  0  0
   19.7653   -1.5272   58.6415 C   0  0  0  0  0  0  0  0  0  0  0  0
   17.9037   -0.3639   57.8248 C   0  0  0  0  0  0  0  0  0  0  0  0
   18.7796   -0.2880   56.7383 C   0  0  0  0  0  0  0  0  0  0  0  0
   16.6432    0.2417   57.7023 C   0  0  0  0  0  0  0  0  0  0  0  0
   16.2784    0.8822   56.5691 N   0  0  0  0  0  0  0  0  0  0  0  0
   20.2704   -1.0851   57.0746 S   0  0  0  0  0  0  0  0  0  0  0  0
    7.4306   -0.4479   65.4348 C   0  0  0  0  0  0  0  0  0  0  0  0
    8.0621   -0.6191   66.7971 C   0  0  0  0  0  0  0  0  0  0  0  0
    8.0304    0.5422   67.5388 N   0  0  0  0  0  0  0  0  0  0  0  0
    8.5115   -1.6827   67.2154 O   0  0  0  0  0  0  0  0  0  0  0  0
  1  2  2  0
  1  4  1  0
  2  6  1  0
 21 23  2  0
 21 26  1  0
 22 24  2  0
 22 25  1  0
  3  5  1  0
  3  6  2  0
 23 28  1  0
 24 29  1  0
 25 26  2  0
 25 27  1  0
  4  5  2  0
  4  8  1  0
  5 10  1  0
  6 12  1  0
 26 29  1  0
 27 28  2  0
 27 19  1  0
  7  8  2  0
  7  9  1  0
  8 13  1  0
  9 10  1  0
  9 11  2  0
 31 30  1  0
 31 32  1  0
 31 33  2  0
 15 17  1  0
 15 19  1  0
 16 18  1  0
 16 19  1  0
 17 20  1  0
 18 20  1  0
 13 14  1  0
 30 10  1  0
 14 20  1  0
M  CHG  1  20   1
M  END
>  <minimizedAffinity>  (18) 
-10.88898

>  <CNNscore>  (18) 
0.7373591661

>  <CNNaffinity>  (18) 
7.4414329529

>  <CNN_VS>  (18) 
5.4870085716

>  <CNNaffinity_variance>  (18) 
0.0426553562

>  <salt_bridge_distance>  (18) 
(3.011760617977463, 3.011760617977463)

$$$$

     RDKit          3D

 33 37  0  0  0  0  0  0  0  0999 V2000
    9.3006    0.6587   64.2621 C   0  0  0  0  0  0  0  0  0  0  0  0
    8.5764    0.8559   65.4370 C   0  0  0  0  0  0  0  0  0  0  0  0
    7.5735   -1.3166   65.1676 C   0  0  0  0  0  0  0  0  0  0  0  0
    9.1736   -0.5300   63.5194 C   0  0  0  0  0  0  0  0  0  0  0  0
    8.2962   -1.5323   63.9792 C   0  0  0  0  0  0  0  0  0  0  0  0
    7.7135   -0.1315   65.8896 C   0  0  0  0  0  0  0  0  0  0  0  0
    9.7803   -1.8943   61.6035 C   0  0  0  0  0  0  0  0  0  0  0  0
    9.9365   -0.7466   62.2753 C   0  0  0  0  0  0  0  0  0  0  0  0
    8.8677   -2.9723   62.0530 C   0  0  0  0  0  0  0  0  0  0  0  0
    8.1572   -2.7467   63.2306 N   0  0  0  0  0  0  0  0  0  0  0  0
    8.7948   -3.9909   61.3647 O   0  0  0  0  0  0  0  0  0  0  0  0
    7.0155    0.0521   67.0176 F   0  0  0  0  0  0  0  0  0  0  0  0
   10.8770    0.3101   61.7701 C   0  0  0  0  0  0  0  0  0  0  0  0
   12.2839    0.0603   62.2730 C   0  0  0  0  0  0  0  0  0  0  0  0
   13.6709    1.3188   58.9414 C   0  0  0  0  0  0  0  0  0  0  0  0
   15.4291   -0.0094   60.0991 C   0  0  0  0  0  0  0  0  0  0  0  0
   12.6272    0.7774   59.9090 C   0  0  0  0  0  0  0  0  0  0  0  0
   14.3818   -0.5440   61.0677 C   0  0  0  0  0  0  0  0  0  0  0  0
   14.8068    0.3937   58.8340 N   0  0  0  0  0  0  0  0  0  0  0  0
   13.2847    0.4760   61.2318 N   0  0  0  0  0  0  0  0  0  0  0  0
   17.1623    0.5954   55.3791 C   0  0  0  0  0  0  0  0  0  0  0  0
   13.9891   -1.0077   56.2577 C   0  0  0  0  0  0  0  0  0  0  0  0
   17.4828    1.2112   56.5761 C   0  0  0  0  0  0  0  0  0  0  0  0
   13.9368   -1.4931   54.9726 C   0  0  0  0  0  0  0  0  0  0  0  0
   15.1584   -0.2143   56.5081 C   0  0  0  0  0  0  0  0  0  0  0  0
   15.9649   -0.1298   55.3697 C   0  0  0  0  0  0  0  0  0  0  0  0
   15.5817    0.4507   57.6698 C   0  0  0  0  0  0  0  0  0  0  0  0
   16.7350    1.1552   57.6955 N   0  0  0  0  0  0  0  0  0  0  0  0
   15.2848   -1.0056   54.0501 S   0  0  0  0  0  0  0  0  0  0  0  0
    7.2457   -3.7816   63.7119 C   0  0  0  0  0  0  0  0  0  0  0  0
    5.8948   -3.6172   63.0544 C   0  0  0  0  0  0  0  0  0  0  0  0
    5.7733   -4.3764   61.9105 N   0  0  0  0  0  0  0  0  0  0  0  0
    4.9905   -2.9228   63.5106 O   0  0  0  0  0  0  0  0  0  0  0  0
  1  2  2  0
  1  4  1  0
  2  6  1  0
 21 23  2  0
 21 26  1  0
 22 24  2  0
 22 25  1  0
  3  5  1  0
  3  6  2  0
 23 28  1  0
 24 29  1  0
 25 26  2  0
 25 27  1  0
  4  5  2  0
  4  8  1  0
  5 10  1  0
  6 12  1  0
 26 29  1  0
 27 28  2  0
 27 19  1  0
  7  8  2  0
  7  9  1  0
  8 13  1  0
  9 10  1  0
  9 11  2  0
 31 30  1  0
 31 32  1  0
 31 33  2  0
 15 17  1  0
 15 19  1  0
 16 18  1  0
 16 19  1  0
 17 20  1  0
 18 20  1  0
 13 14  1  0
 30 10  1  0
 14 20  1  0
M  CHG  1  20   1
M  END
>  <minimizedAffinity>  (19) 
-10.07932

>  <CNNscore>  (19) 
0.6403993368

>  <CNNaffinity>  (19) 
7.2424278259

>  <CNN_VS>  (19) 
4.6380457878

>  <CNNaffinity_variance>  (19) 
0.0670947954

>  <salt_bridge_distance>  (19) 
(2.8052426151760916, 2.8052426151760916)

$$$$

     RDKit          3D

 33 37  0  0  0  0  0  0  0  0999 V2000
    9.1338   -2.7748   61.4462 C   0  0  0  0  0  0  0  0  0  0  0  0
    8.1521   -3.7530   61.2944 C   0  0  0  0  0  0  0  0  0  0  0  0
    7.0388   -2.9218   63.2611 C   0  0  0  0  0  0  0  0  0  0  0  0
    9.0849   -1.8530   62.5085 C   0  0  0  0  0  0  0  0  0  0  0  0
    8.0214   -1.9283   63.4299 C   0  0  0  0  0  0  0  0  0  0  0  0
    7.1049   -3.8262   62.2014 C   0  0  0  0  0  0  0  0  0  0  0  0
   10.0295    0.0390   63.7038 C   0  0  0  0  0  0  0  0  0  0  0  0
   10.1197   -0.8146   62.6760 C   0  0  0  0  0  0  0  0  0  0  0  0
    8.9279   -0.0074   64.6944 C   0  0  0  0  0  0  0  0  0  0  0  0
    7.9616   -0.9959   64.5169 N   0  0  0  0  0  0  0  0  0  0  0  0
    8.9347    0.8227   65.6041 O   0  0  0  0  0  0  0  0  0  0  0  0
    6.1589   -4.7635   62.0605 F   0  0  0  0  0  0  0  0  0  0  0  0
   11.2602   -0.7185   61.7033 C   0  0  0  0  0  0  0  0  0  0  0  0
   12.4392   -0.0018   62.3287 C   0  0  0  0  0  0  0  0  0  0  0  0
   13.7013    1.2720   58.9536 C   0  0  0  0  0  0  0  0  0  0  0  0
   15.5343    0.0232   60.0832 C   0  0  0  0  0  0  0  0  0  0  0  0
   12.7011    0.7022   59.9505 C   0  0  0  0  0  0  0  0  0  0  0  0
   14.5304   -0.5400   61.0811 C   0  0  0  0  0  0  0  0  0  0  0  0
   14.8685    0.3890   58.8290 N   0  0  0  0  0  0  0  0  0  0  0  0
   13.3995    0.4399   61.2606 N   0  0  0  0  0  0  0  0  0  0  0  0
   17.1365    0.6397   55.3192 C   0  0  0  0  0  0  0  0  0  0  0  0
   13.9849   -0.9741   56.2540 C   0  0  0  0  0  0  0  0  0  0  0  0
   17.4876    1.2376   56.5166 C   0  0  0  0  0  0  0  0  0  0  0  0
   13.8997   -1.4406   54.9636 C   0  0  0  0  0  0  0  0  0  0  0  0
   15.1608   -0.1852   56.4864 C   0  0  0  0  0  0  0  0  0  0  0  0
   15.9385   -0.0846   55.3293 C   0  0  0  0  0  0  0  0  0  0  0  0
   15.6139    0.4625   57.6466 C   0  0  0  0  0  0  0  0  0  0  0  0
   16.7682    1.1658   57.6536 N   0  0  0  0  0  0  0  0  0  0  0  0
   15.2245   -0.9406   54.0146 S   0  0  0  0  0  0  0  0  0  0  0  0
    6.8572   -1.0795   65.4691 C   0  0  0  0  0  0  0  0  0  0  0  0
    5.6900   -0.2595   64.9697 C   0  0  0  0  0  0  0  0  0  0  0  0
    4.6095   -1.0424   64.6244 N   0  0  0  0  0  0  0  0  0  0  0  0
    5.6861    0.9675   64.9198 O   0  0  0  0  0  0  0  0  0  0  0  0
  1  2  2  0
  1  4  1  0
  2  6  1  0
 21 23  2  0
 21 26  1  0
 22 24  2  0
 22 25  1  0
  3  5  1  0
  3  6  2  0
 23 28  1  0
 24 29  1  0
 25 26  2  0
 25 27  1  0
  4  5  2  0
  4  8  1  0
  5 10  1  0
  6 12  1  0
 26 29  1  0
 27 28  2  0
 27 19  1  0
  7  8  2  0
  7  9  1  0
  8 13  1  0
  9 10  1  0
  9 11  2  0
 31 30  1  0
 31 32  1  0
 31 33  2  0
 15 17  1  0
 15 19  1  0
 16 18  1  0
 16 19  1  0
 17 20  1  0
 18 20  1  0
 13 14  1  0
 30 10  1  0
 14 20  1  0
M  CHG  1  20   1
M  END
>  <minimizedAffinity>  (20) 
-10.39164

>  <CNNscore>  (20) 
0.4733088613

>  <CNNaffinity>  (20) 
7.0284051895

>  <CNN_VS>  (20) 
3.3266065121

>  <CNNaffinity_variance>  (20) 
0.0643175617

>  <salt_bridge_distance>  (20) 
(2.8080671323883983, 2.8080671323883983)

$$$$

     RDKit          3D

 33 37  0  0  0  0  0  0  0  0999 V2000
   16.4333    0.4579   58.1000 C   0  0  0  0  0  0  0  0  0  0  0  0
   17.6890    0.6806   57.5365 C   0  0  0  0  0  0  0  0  0  0  0  0
   16.7901    0.1653   55.3629 C   0  0  0  0  0  0  0  0  0  0  0  0
   15.3341    0.0849   57.3044 C   0  0  0  0  0  0  0  0  0  0  0  0
   15.5157   -0.0641   55.9149 C   0  0  0  0  0  0  0  0  0  0  0  0
   17.8670    0.5346   56.1685 C   0  0  0  0  0  0  0  0  0  0  0  0
   12.9875   -0.5066   57.0939 C   0  0  0  0  0  0  0  0  0  0  0  0
   14.0020   -0.1524   57.8928 C   0  0  0  0  0  0  0  0  0  0  0  0
   13.1375   -0.6744   55.6288 C   0  0  0  0  0  0  0  0  0  0  0  0
   14.4040   -0.4452   55.0943 N   0  0  0  0  0  0  0  0  0  0  0  0
   12.1429   -1.0026   54.9809 O   0  0  0  0  0  0  0  0  0  0  0  0
   19.0707    0.7474   55.6215 F   0  0  0  0  0  0  0  0  0  0  0  0
   13.7892    0.0024   59.3717 C   0  0  0  0  0  0  0  0  0  0  0  0
   13.0413    1.2845   59.6744 C   0  0  0  0  0  0  0  0  0  0  0  0
   11.4260   -0.1864   62.8103 C   0  0  0  0  0  0  0  0  0  0  0  0
    9.6398    0.7013   61.3214 C   0  0  0  0  0  0  0  0  0  0  0  0
   12.4274   -0.0828   61.6679 C   0  0  0  0  0  0  0  0  0  0  0  0
   10.6469    0.8079   60.1833 C   0  0  0  0  0  0  0  0  0  0  0  0
   10.0585   -0.3168   62.2901 N   0  0  0  0  0  0  0  0  0  0  0  0
   12.0222    1.0444   60.7524 N   0  0  0  0  0  0  0  0  0  0  0  0
    7.2002   -2.1532   64.7361 C   0  0  0  0  0  0  0  0  0  0  0  0
    9.0628    0.9978   64.8493 C   0  0  0  0  0  0  0  0  0  0  0  0
    7.6888   -2.7020   63.5636 C   0  0  0  0  0  0  0  0  0  0  0  0
    8.4097    1.2830   66.0250 C   0  0  0  0  0  0  0  0  0  0  0  0
    8.6787   -0.2663   64.2892 C   0  0  0  0  0  0  0  0  0  0  0  0
    7.7236   -0.9030   65.0867 C   0  0  0  0  0  0  0  0  0  0  0  0
    9.1035   -0.9160   63.1195 C   0  0  0  0  0  0  0  0  0  0  0  0
    8.6081   -2.1232   62.7666 N   0  0  0  0  0  0  0  0  0  0  0  0
    7.3292    0.0429   66.4726 S   0  0  0  0  0  0  0  0  0  0  0  0
   14.5988   -0.5987   53.6549 C   0  0  0  0  0  0  0  0  0  0  0  0
   14.2183    0.6825   52.9493 C   0  0  0  0  0  0  0  0  0  0  0  0
   12.9814    0.6010   52.3467 N   0  0  0  0  0  0  0  0  0  0  0  0
   14.9101    1.6970   52.9504 O   0  0  0  0  0  0  0  0  0  0  0  0
  1  2  2  0
  1  4  1  0
  2  6  1  0
 21 23  2  0
 21 26  1  0
 22 24  2  0
 22 25  1  0
  3  5  1  0
  3  6  2  0
 23 28  1  0
 24 29  1  0
 25 26  2  0
 25 27  1  0
  4  5  2  0
  4  8  1  0
  5 10  1  0
  6 12  1  0
 26 29  1  0
 27 28  2  0
 27 19  1  0
  7  8  2  0
  7  9  1  0
  8 13  1  0
  9 10  1  0
  9 11  2  0
 31 30  1  0
 31 32  1  0
 31 33  2  0
 15 17  1  0
 15 19  1  0
 16 18  1  0
 16 19  1  0
 17 20  1  0
 18 20  1  0
 13 14  1  0
 30 10  1  0
 14 20  1  0
M  CHG  1  20   1
M  END
>  <minimizedAffinity>  (21) 
-9.12863

>  <CNNscore>  (21) 
0.4004786909

>  <CNNaffinity>  (21) 
7.2170577049

>  <CNN_VS>  (21) 
2.8902778625

>  <CNNaffinity_variance>  (21) 
0.1141161174

>  <salt_bridge_distance>  (21) 
(3.0535103012762206, 3.0535103012762206)

$$$$

     RDKit          3D

 33 37  0  0  0  0  0  0  0  0999 V2000
   13.5267    0.9886   55.4108 C   0  0  0  0  0  0  0  0  0  0  0  0
   13.7160    1.3203   54.0699 C   0  0  0  0  0  0  0  0  0  0  0  0
   16.0034    0.5841   54.2247 C   0  0  0  0  0  0  0  0  0  0  0  0
   14.5729    0.4487   56.1819 C   0  0  0  0  0  0  0  0  0  0  0  0
   15.8303    0.2441   55.5795 C   0  0  0  0  0  0  0  0  0  0  0  0
   14.9538    1.1178   53.4772 C   0  0  0  0  0  0  0  0  0  0  0  0
   15.4075   -0.4151   58.2933 C   0  0  0  0  0  0  0  0  0  0  0  0
   14.3807    0.0948   57.6013 C   0  0  0  0  0  0  0  0  0  0  0  0
   16.7449   -0.6449   57.6970 C   0  0  0  0  0  0  0  0  0  0  0  0
   16.9040   -0.3036   56.3551 N   0  0  0  0  0  0  0  0  0  0  0  0
   17.6241   -1.1189   58.4174 O   0  0  0  0  0  0  0  0  0  0  0  0
   15.1416    1.4343   52.1896 F   0  0  0  0  0  0  0  0  0  0  0  0
   13.0474    0.3051   58.2602 C   0  0  0  0  0  0  0  0  0  0  0  0
   13.0717    1.5398   59.1375 C   0  0  0  0  0  0  0  0  0  0  0  0
   11.8126   -0.1976   62.3002 C   0  0  0  0  0  0  0  0  0  0  0  0
   10.0647    1.3807   61.4945 C   0  0  0  0  0  0  0  0  0  0  0  0
   12.5413   -0.0672   60.9695 C   0  0  0  0  0  0  0  0  0  0  0  0
   10.8004    1.5116   60.1669 C   0  0  0  0  0  0  0  0  0  0  0  0
   10.3838    0.1033   62.1399 N   0  0  0  0  0  0  0  0  0  0  0  0
   12.2757    1.2986   60.3891 N   0  0  0  0  0  0  0  0  0  0  0  0
    7.7429   -1.4677   64.9829 C   0  0  0  0  0  0  0  0  0  0  0  0
    8.9333   -2.5352   61.6883 C   0  0  0  0  0  0  0  0  0  0  0  0
    8.4291   -0.2756   65.1336 C   0  0  0  0  0  0  0  0  0  0  0  0
    8.1376   -3.6488   61.8177 C   0  0  0  0  0  0  0  0  0  0  0  0
    8.8548   -1.6577   62.8210 C   0  0  0  0  0  0  0  0  0  0  0  0
    7.9783   -2.1581   63.7879 C   0  0  0  0  0  0  0  0  0  0  0  0
    9.4979   -0.4368   63.0793 C   0  0  0  0  0  0  0  0  0  0  0  0
    9.2817    0.2422   64.2280 N   0  0  0  0  0  0  0  0  0  0  0  0
    7.2876   -3.6585   63.2952 S   0  0  0  0  0  0  0  0  0  0  0  0
   18.2052   -0.5128   55.7252 C   0  0  0  0  0  0  0  0  0  0  0  0
   19.1334    0.6252   56.0824 C   0  0  0  0  0  0  0  0  0  0  0  0
   20.4583    0.3037   55.8797 N   0  0  0  0  0  0  0  0  0  0  0  0
   18.7507    1.7272   56.4659 O   0  0  0  0  0  0  0  0  0  0  0  0
  1  2  2  0
  1  4  1  0
  2  6  1  0
 21 23  2  0
 21 26  1  0
 22 24  2  0
 22 25  1  0
  3  5  1  0
  3  6  2  0
 23 28  1  0
 24 29  1  0
 25 26  2  0
 25 27  1  0
  4  5  2  0
  4  8  1  0
  5 10  1  0
  6 12  1  0
 26 29  1  0
 27 28  2  0
 27 19  1  0
  7  8  2  0
  7  9  1  0
  8 13  1  0
  9 10  1  0
  9 11  2  0
 31 30  1  0
 31 32  1  0
 31 33  2  0
 15 17  1  0
 15 19  1  0
 16 18  1  0
 16 19  1  0
 17 20  1  0
 18 20  1  0
 13 14  1  0
 30 10  1  0
 14 20  1  0
M  CHG  1  20   1
M  END
>  <minimizedAffinity>  (22) 
-9.73549

>  <CNNscore>  (22) 
0.3148591816

>  <CNNaffinity>  (22) 
6.8403902054

>  <CNN_VS>  (22) 
2.1537597179

>  <CNNaffinity_variance>  (22) 
0.1054893881

>  <salt_bridge_distance>  (22) 
(2.8973137317177096, 2.8973137317177096)

$$$$

     RDKit          3D

 33 37  0  0  0  0  0  0  0  0999 V2000
    8.8092   -2.3560   61.7537 C   0  0  0  0  0  0  0  0  0  0  0  0
    8.1968   -3.5835   62.0026 C   0  0  0  0  0  0  0  0  0  0  0  0
    7.7989   -2.9080   64.2793 C   0  0  0  0  0  0  0  0  0  0  0  0
    8.9270   -1.3831   62.7636 C   0  0  0  0  0  0  0  0  0  0  0  0
    8.4145   -1.6639   64.0459 C   0  0  0  0  0  0  0  0  0  0  0  0
    7.6917   -3.8591   63.2649 C   0  0  0  0  0  0  0  0  0  0  0  0
    9.6621    0.8111   63.5025 C   0  0  0  0  0  0  0  0  0  0  0  0
    9.5734   -0.0815   62.5083 C   0  0  0  0  0  0  0  0  0  0  0  0
    9.1365    0.5540   64.8643 C   0  0  0  0  0  0  0  0  0  0  0  0
    8.5299   -0.6815   65.0832 N   0  0  0  0  0  0  0  0  0  0  0  0
    9.2671    1.4399   65.7099 O   0  0  0  0  0  0  0  0  0  0  0  0
    7.1022   -5.0363   63.5099 F   0  0  0  0  0  0  0  0  0  0  0  0
   10.1249    0.2359   61.1477 C   0  0  0  0  0  0  0  0  0  0  0  0
   11.0666    1.4206   61.2139 C   0  0  0  0  0  0  0  0  0  0  0  0
   11.4905    1.8614   57.4413 C   0  0  0  0  0  0  0  0  0  0  0  0
   13.6166    0.9885   58.3972 C   0  0  0  0  0  0  0  0  0  0  0  0
   10.7702    1.5239   58.7397 C   0  0  0  0  0  0  0  0  0  0  0  0
   12.8922    0.6576   59.6959 C   0  0  0  0  0  0  0  0  0  0  0  0
   12.6771    1.0123   57.2716 N   0  0  0  0  0  0  0  0  0  0  0  0
   11.7442    1.6152   59.8868 N   0  0  0  0  0  0  0  0  0  0  0  0
   14.1004    0.4785   53.3710 C   0  0  0  0  0  0  0  0  0  0  0  0
   13.2224   -1.7587   56.1341 C   0  0  0  0  0  0  0  0  0  0  0  0
   13.8348    1.7115   53.9402 C   0  0  0  0  0  0  0  0  0  0  0  0
   13.5662   -2.8136   55.3224 C   0  0  0  0  0  0  0  0  0  0  0  0
   13.3877   -0.4846   55.4947 C   0  0  0  0  0  0  0  0  0  0  0  0
   13.8630   -0.6327   54.1887 C   0  0  0  0  0  0  0  0  0  0  0  0
   13.1527    0.8152   55.9700 C   0  0  0  0  0  0  0  0  0  0  0  0
   13.3767    1.8987   55.1933 N   0  0  0  0  0  0  0  0  0  0  0  0
   14.0903   -2.2932   53.7861 S   0  0  0  0  0  0  0  0  0  0  0  0
    7.9973   -0.9788   66.4104 C   0  0  0  0  0  0  0  0  0  0  0  0
    9.0521   -1.6754   67.2389 C   0  0  0  0  0  0  0  0  0  0  0  0
   10.2909   -1.0843   67.1139 N   0  0  0  0  0  0  0  0  0  0  0  0
    8.8242   -2.6308   67.9759 O   0  0  0  0  0  0  0  0  0  0  0  0
  1  2  2  0
  1  4  1  0
  2  6  1  0
 21 23  2  0
 21 26  1  0
 22 24  2  0
 22 25  1  0
  3  5  1  0
  3  6  2  0
 23 28  1  0
 24 29  1  0
 25 26  2  0
 25 27  1  0
  4  5  2  0
  4  8  1  0
  5 10  1  0
  6 12  1  0
 26 29  1  0
 27 28  2  0
 27 19  1  0
  7  8  2  0
  7  9  1  0
  8 13  1  0
  9 10  1  0
  9 11  2  0
 31 30  1  0
 31 32  1  0
 31 33  2  0
 15 17  1  0
 15 19  1  0
 16 18  1  0
 16 19  1  0
 17 20  1  0
 18 20  1  0
 13 14  1  0
 30 10  1  0
 14 20  1  0
M  CHG  1  20   1
M  END
>  <minimizedAffinity>  (23) 
-8.29527

>  <CNNscore>  (23) 
0.3020788133

>  <CNNaffinity>  (23) 
6.7454099655

>  <CNN_VS>  (23) 
2.0376453400

>  <CNNaffinity_variance>  (23) 
0.1601548791

>  <salt_bridge_distance>  (23) 
(3.3428575380952146, 3.3428575380952146)

$$$$

     RDKit          3D

 28 31  0  0  0  0  0  0  0  0999 V2000
   12.6028   -0.8820   56.1602 C   0  0  0  0  0  0  0  0  0  0  0  0
   12.6849   -0.2437   54.9320 C   0  0  0  0  0  0  0  0  0  0  0  0
   20.1337   -0.1535   56.0978 C   0  0  0  0  0  0  0  0  0  0  0  0
   13.7274   -0.9533   56.9868 C   0  0  0  0  0  0  0  0  0  0  0  0
   13.8931    0.3159   54.5301 C   0  0  0  0  0  0  0  0  0  0  0  0
   19.0932    0.3790   55.3441 C   0  0  0  0  0  0  0  0  0  0  0  0
   18.5303   -0.8945   57.7390 C   0  0  0  0  0  0  0  0  0  0  0  0
   19.8517   -0.7939   57.2950 C   0  0  0  0  0  0  0  0  0  0  0  0
   14.9658   -0.3852   56.6156 C   0  0  0  0  0  0  0  0  0  0  0  0
   17.4515   -0.3545   57.0049 C   0  0  0  0  0  0  0  0  0  0  0  0
   15.0291    0.2426   55.3557 C   0  0  0  0  0  0  0  0  0  0  0  0
   17.7612    0.2762   55.7836 C   0  0  0  0  0  0  0  0  0  0  0  0
   16.1098   -0.4682   57.4489 N   0  0  0  0  0  0  0  0  0  0  0  0
   16.5147    1.0153   54.7471 S   0  0  0  0  0  0  0  0  0  0  0  0
   20.9590   -1.3690   58.1126 C   0  0  0  0  0  0  0  0  0  0  0  0
   20.9654   -0.9349   59.4075 F   0  0  0  0  0  0  0  0  0  0  0  0
   20.9271   -2.7319   58.1938 F   0  0  0  0  0  0  0  0  0  0  0  0
   22.1925   -1.0603   57.6167 F   0  0  0  0  0  0  0  0  0  0  0  0
   15.8910   -0.7641   58.8707 C   0  0  0  0  0  0  0  0  0  0  0  0
   15.1422    0.3754   59.5567 C   0  0  0  0  0  0  0  0  0  0  0  0
   14.2081   -0.1236   60.6520 C   0  0  0  0  0  0  0  0  0  0  0  0
   10.5853    0.9418   61.2642 C   0  0  0  0  0  0  0  0  0  0  0  0
   11.4729    2.2625   59.4435 C   0  0  0  0  0  0  0  0  0  0  0  0
   11.7764   -0.0087   61.2021 C   0  0  0  0  0  0  0  0  0  0  0  0
   12.6897    1.3503   59.3285 C   0  0  0  0  0  0  0  0  0  0  0  0
    9.1357    2.4030   60.0117 C   0  0  0  0  0  0  0  0  0  0  0  0
   10.3051    1.5272   59.9465 N   0  0  0  0  0  0  0  0  0  0  0  0
   12.9768    0.7368   60.6757 N   0  0  0  0  0  0  0  0  0  0  0  0
  1  2  2  0
  1  4  1  0
  2  5  1  0
  3  6  1  0
  3  8  2  0
  4  9  2  0
  5 11  2  0
  6 12  2  0
  7  8  1  0
  7 10  2  0
  8 15  1  0
  9 11  1  0
  9 13  1  0
 10 12  1  0
 10 13  1  0
 11 14  1  0
 12 14  1  0
 22 24  1  0
 22 27  1  0
 23 25  1  0
 23 27  1  0
 24 28  1  0
 25 28  1  0
 26 27  1  0
 20 19  1  0
 20 21  1  0
 19 13  1  0
 21 28  1  0
 15 16  1  0
 15 17  1  0
 15 18  1  0
M  CHG  1  28   1
M  END
>  <minimizedAffinity>  (24) 
-9.07101

>  <CNNscore>  (24) 
0.6419665217

>  <CNNaffinity>  (24) 
7.2762556076

>  <CNN_VS>  (24) 
4.6711125374

>  <CNNaffinity_variance>  (24) 
0.1364760697

>  <salt_bridge_distance>  (24) 
(2.849425796542173, 2.849425796542173)

$$$$

     RDKit          3D

 28 31  0  0  0  0  0  0  0  0999 V2000
    9.9888   -0.6305   65.7321 C   0  0  0  0  0  0  0  0  0  0  0  0
    9.4696   -1.8828   66.0236 C   0  0  0  0  0  0  0  0  0  0  0  0
    9.1436   -2.8766   58.5564 C   0  0  0  0  0  0  0  0  0  0  0  0
    9.9620   -0.1515   64.4194 C   0  0  0  0  0  0  0  0  0  0  0  0
    8.9308   -2.6561   65.0007 C   0  0  0  0  0  0  0  0  0  0  0  0
    8.7030   -3.3498   59.7878 C   0  0  0  0  0  0  0  0  0  0  0  0
    9.7511   -0.7921   59.6046 C   0  0  0  0  0  0  0  0  0  0  0  0
    9.6712   -1.5976   58.4652 C   0  0  0  0  0  0  0  0  0  0  0  0
    9.4113   -0.9048   63.3594 C   0  0  0  0  0  0  0  0  0  0  0  0
    9.3019   -1.2363   60.8676 C   0  0  0  0  0  0  0  0  0  0  0  0
    8.9059   -2.1811   63.6774 C   0  0  0  0  0  0  0  0  0  0  0  0
    8.7857   -2.5454   60.9384 C   0  0  0  0  0  0  0  0  0  0  0  0
    9.3951   -0.4239   62.0258 N   0  0  0  0  0  0  0  0  0  0  0  0
    8.1701   -3.2487   62.4553 S   0  0  0  0  0  0  0  0  0  0  0  0
   10.1470   -1.0785   57.1501 C   0  0  0  0  0  0  0  0  0  0  0  0
   11.3453   -1.6024   56.7562 F   0  0  0  0  0  0  0  0  0  0  0  0
    9.2894   -1.3355   56.1187 F   0  0  0  0  0  0  0  0  0  0  0  0
   10.3220    0.2750   57.1525 F   0  0  0  0  0  0  0  0  0  0  0  0
    9.5574    1.0220   61.8261 C   0  0  0  0  0  0  0  0  0  0  0  0
   11.0333    1.3964   61.7211 C   0  0  0  0  0  0  0  0  0  0  0  0
   11.4595    1.6701   60.2842 C   0  0  0  0  0  0  0  0  0  0  0  0
   14.7708    0.8400   58.5578 C   0  0  0  0  0  0  0  0  0  0  0  0
   14.6658   -0.3863   60.6392 C   0  0  0  0  0  0  0  0  0  0  0  0
   13.2929    1.2032   58.6564 C   0  0  0  0  0  0  0  0  0  0  0  0
   13.1848   -0.0587   60.7983 C   0  0  0  0  0  0  0  0  0  0  0  0
   16.4589   -0.7970   59.0831 C   0  0  0  0  0  0  0  0  0  0  0  0
   15.0472   -0.4407   59.2218 N   0  0  0  0  0  0  0  0  0  0  0  0
   12.8912    1.2500   60.1091 N   0  0  0  0  0  0  0  0  0  0  0  0
  1  2  2  0
  1  4  1  0
  2  5  1  0
  3  6  1  0
  3  8  2  0
  4  9  2  0
  5 11  2  0
  6 12  2  0
  7  8  1  0
  7 10  2  0
  8 15  1  0
  9 11  1  0
  9 13  1  0
 10 12  1  0
 10 13  1  0
 11 14  1  0
 12 14  1  0
 22 24  1  0
 22 27  1  0
 23 25  1  0
 23 27  1  0
 24 28  1  0
 25 28  1  0
 26 27  1  0
 20 19  1  0
 20 21  1  0
 19 13  1  0
 21 28  1  0
 15 16  1  0
 15 17  1  0
 15 18  1  0
M  CHG  1  28   1
M  END
>  <minimizedAffinity>  (25) 
-8.48995

>  <CNNscore>  (25) 
0.4025901854

>  <CNNaffinity>  (25) 
6.9593505859

>  <CNN_VS>  (25) 
2.8017661572

>  <CNNaffinity_variance>  (25) 
0.4547194541

>  <salt_bridge_distance>  (25) 
(2.7976171021067207, 2.7976171021067207)

$$$$

     RDKit          3D

 28 31  0  0  0  0  0  0  0  0999 V2000
   17.8237    1.4183   56.8809 C   0  0  0  0  0  0  0  0  0  0  0  0
   18.0951    1.1738   55.5432 C   0  0  0  0  0  0  0  0  0  0  0  0
   10.9920   -1.3216   55.1286 C   0  0  0  0  0  0  0  0  0  0  0  0
   16.6484    0.9275   57.4562 C   0  0  0  0  0  0  0  0  0  0  0  0
   17.1874    0.4448   54.7822 C   0  0  0  0  0  0  0  0  0  0  0  0
   12.2287   -1.2973   54.4928 C   0  0  0  0  0  0  0  0  0  0  0  0
   12.0686   -0.6822   57.1891 C   0  0  0  0  0  0  0  0  0  0  0  0
   10.9113   -1.0105   56.4775 C   0  0  0  0  0  0  0  0  0  0  0  0
   15.7115    0.1734   56.7160 C   0  0  0  0  0  0  0  0  0  0  0  0
   13.3414   -0.6599   56.5777 C   0  0  0  0  0  0  0  0  0  0  0  0
   16.0009   -0.0469   55.3547 C   0  0  0  0  0  0  0  0  0  0  0  0
   13.3957   -0.9627   55.2027 C   0  0  0  0  0  0  0  0  0  0  0  0
   14.5135   -0.3141   57.2966 N   0  0  0  0  0  0  0  0  0  0  0  0
   14.9254   -0.9868   54.2896 S   0  0  0  0  0  0  0  0  0  0  0  0
    9.5907   -1.0331   57.1709 C   0  0  0  0  0  0  0  0  0  0  0  0
    8.5281   -1.1488   56.3206 F   0  0  0  0  0  0  0  0  0  0  0  0
    9.4548   -2.0663   58.0537 F   0  0  0  0  0  0  0  0  0  0  0  0
    9.3587    0.1003   57.8949 F   0  0  0  0  0  0  0  0  0  0  0  0
   14.4586   -0.4017   58.7616 C   0  0  0  0  0  0  0  0  0  0  0  0
   14.1908    0.9675   59.3808 C   0  0  0  0  0  0  0  0  0  0  0  0
   12.7190    1.3553   59.3116 C   0  0  0  0  0  0  0  0  0  0  0  0
   11.7316    0.0704   62.7769 C   0  0  0  0  0  0  0  0  0  0  0  0
   10.2214    1.8572   62.1656 C   0  0  0  0  0  0  0  0  0  0  0  0
   12.2699   -0.0097   61.3522 C   0  0  0  0  0  0  0  0  0  0  0  0
   10.7158    1.8290   60.7231 C   0  0  0  0  0  0  0  0  0  0  0  0
    9.8214    0.5652   64.1595 C   0  0  0  0  0  0  0  0  0  0  0  0
   10.3378    0.5336   62.7916 N   0  0  0  0  0  0  0  0  0  0  0  0
   12.1433    1.3436   60.6991 N   0  0  0  0  0  0  0  0  0  0  0  0
  1  2  2  0
  1  4  1  0
  2  5  1  0
  3  6  1  0
  3  8  2  0
  4  9  2  0
  5 11  2  0
  6 12  2  0
  7  8  1  0
  7 10  2  0
  8 15  1  0
  9 11  1  0
  9 13  1  0
 10 12  1  0
 10 13  1  0
 11 14  1  0
 12 14  1  0
 22 24  1  0
 22 27  1  0
 23 25  1  0
 23 27  1  0
 24 28  1  0
 25 28  1  0
 26 27  1  0
 20 19  1  0
 20 21  1  0
 19 13  1  0
 21 28  1  0
 15 16  1  0
 15 17  1  0
 15 18  1  0
M  CHG  1  28   1
M  END
>  <minimizedAffinity>  (26) 
-8.18204

>  <CNNscore>  (26) 
0.2746949196

>  <CNNaffinity>  (26) 
6.6953554153

>  <CNN_VS>  (26) 
1.8391801119

>  <CNNaffinity_variance>  (26) 
0.3043777645

>  <salt_bridge_distance>  (26) 
(2.801361001370583, 2.801361001370583)

$$$$

     RDKit          3D

 28 31  0  0  0  0  0  0  0  0999 V2000
   10.2686   -0.6828   66.3957 C   0  0  0  0  0  0  0  0  0  0  0  0
    9.8774   -1.9452   66.8153 C   0  0  0  0  0  0  0  0  0  0  0  0
    8.7435   -3.4181   59.5080 C   0  0  0  0  0  0  0  0  0  0  0  0
   10.0532   -0.2887   65.0723 C   0  0  0  0  0  0  0  0  0  0  0  0
    9.2777   -2.8131   65.9089 C   0  0  0  0  0  0  0  0  0  0  0  0
    8.4860   -3.8414   60.8076 C   0  0  0  0  0  0  0  0  0  0  0  0
    9.3213   -1.2382   60.3606 C   0  0  0  0  0  0  0  0  0  0  0  0
    9.1647   -2.1161   59.2845 C   0  0  0  0  0  0  0  0  0  0  0  0
    9.4359   -1.1397   64.1295 C   0  0  0  0  0  0  0  0  0  0  0  0
    9.0569   -1.6312   61.6910 C   0  0  0  0  0  0  0  0  0  0  0  0
    9.0632   -2.4236   64.5748 C   0  0  0  0  0  0  0  0  0  0  0  0
    8.6467   -2.9637   61.8946 C   0  0  0  0  0  0  0  0  0  0  0  0
    9.2283   -0.7443   62.7839 N   0  0  0  0  0  0  0  0  0  0  0  0
    8.2658   -3.6095   63.5108 S   0  0  0  0  0  0  0  0  0  0  0  0
    9.4440   -1.6501   57.8951 C   0  0  0  0  0  0  0  0  0  0  0  0
    8.6604   -2.2481   56.9496 F   0  0  0  0  0  0  0  0  0  0  0  0
    9.2532   -0.3092   57.7200 F   0  0  0  0  0  0  0  0  0  0  0  0
   10.7309   -1.8905   57.5098 F   0  0  0  0  0  0  0  0  0  0  0  0
    9.2631    0.6938   62.4884 C   0  0  0  0  0  0  0  0  0  0  0  0
   10.5468    1.3289   63.0164 C   0  0  0  0  0  0  0  0  0  0  0  0
   11.7933    0.7297   62.3774 C   0  0  0  0  0  0  0  0  0  0  0  0
   12.6046    0.2105   58.6751 C   0  0  0  0  0  0  0  0  0  0  0  0
   11.1424    2.1259   58.8757 C   0  0  0  0  0  0  0  0  0  0  0  0
   12.8501    0.1960   60.1803 C   0  0  0  0  0  0  0  0  0  0  0  0
   11.3455    2.1670   60.3866 C   0  0  0  0  0  0  0  0  0  0  0  0
   12.1293    1.5759   56.7476 C   0  0  0  0  0  0  0  0  0  0  0  0
   12.3209    1.5702   58.1975 N   0  0  0  0  0  0  0  0  0  0  0  0
   11.6483    0.7756   60.8828 N   0  0  0  0  0  0  0  0  0  0  0  0
  1  2  2  0
  1  4  1  0
  2  5  1  0
  3  6  1  0
  3  8  2  0
  4  9  2  0
  5 11  2  0
  6 12  2  0
  7  8  1  0
  7 10  2  0
  8 15  1  0
  9 11  1  0
  9 13  1  0
 10 12  1  0
 10 13  1  0
 11 14  1  0
 12 14  1  0
 22 24  1  0
 22 27  1  0
 23 25  1  0
 23 27  1  0
 24 28  1  0
 25 28  1  0
 26 27  1  0
 20 19  1  0
 20 21  1  0
 19 13  1  0
 21 28  1  0
 15 16  1  0
 15 17  1  0
 15 18  1  0
M  CHG  1  28   1
M  END
>  <minimizedAffinity>  (27) 
-7.79161

>  <CNNscore>  (27) 
0.2402441800

>  <CNNaffinity>  (27) 
6.5376882553

>  <CNN_VS>  (27) 
1.5706415176

>  <CNNaffinity_variance>  (27) 
0.5462850332

>  <salt_bridge_distance>  (27) 
(3.435697089383753, 3.435697089383753)

$$$$

     RDKit          3D

 33 36  0  0  0  0  0  0  0  0999 V2000
   11.0714    0.7127   62.8034 C   0  0  0  0  0  0  0  0  0  0  0  0
    9.1729   -1.1631   65.0476 C   0  0  0  0  0  0  0  0  0  0  0  0
    9.6210   -1.3748   62.9268 C   0  0  0  0  0  0  0  0  0  0  0  0
    9.9368   -0.1369   64.8117 N   0  0  0  0  0  0  0  0  0  0  0  0
    8.9372   -1.9539   63.9794 N   0  0  0  0  0  0  0  0  0  0  0  0
   10.2320   -0.2456   63.4823 N   0  0  0  0  0  0  0  0  0  0  0  0
    9.6849   -1.7560   61.7668 O   0  0  0  0  0  0  0  0  0  0  0  0
    9.5132   -2.3824   67.1697 C   0  0  0  0  0  0  0  0  0  0  0  0
    8.5919   -1.4694   66.3867 C   0  0  0  0  0  0  0  0  0  0  0  0
    8.1332   -3.1608   63.9433 C   0  0  0  0  0  0  0  0  0  0  0  0
    6.9075   -2.9304   63.0783 C   0  0  0  0  0  0  0  0  0  0  0  0
    5.7988   -2.6057   63.9072 O   0  0  0  0  0  0  0  0  0  0  0  0
    2.9496   -5.5822   64.4801 C   0  0  0  0  0  0  0  0  0  0  0  0
    3.3072   -4.7465   65.5380 C   0  0  0  0  0  0  0  0  0  0  0  0
    3.5478   -5.4204   63.2304 C   0  0  0  0  0  0  0  0  0  0  0  0
    4.2628   -3.7487   65.3463 C   0  0  0  0  0  0  0  0  0  0  0  0
    4.5035   -4.4226   63.0387 C   0  0  0  0  0  0  0  0  0  0  0  0
    4.8610   -3.5868   64.0965 C   0  0  0  0  0  0  0  0  0  0  0  0
   12.5247    0.2463   62.7808 C   0  0  0  0  0  0  0  0  0  0  0  0
   12.8482   -0.5777   61.5409 C   0  0  0  0  0  0  0  0  0  0  0  0
   12.9143    1.3305   58.2276 C   0  0  0  0  0  0  0  0  0  0  0  0
   15.2253    1.0708   59.0278 C   0  0  0  0  0  0  0  0  0  0  0  0
   12.4078    0.3207   59.2506 C   0  0  0  0  0  0  0  0  0  0  0  0
   14.7694    0.0552   60.0735 C   0  0  0  0  0  0  0  0  0  0  0  0
   14.3059    1.0275   57.8862 N   0  0  0  0  0  0  0  0  0  0  0  0
   13.3304    0.3411   60.4537 N   0  0  0  0  0  0  0  0  0  0  0  0
   16.2814   -0.1628   55.0102 C   0  0  0  0  0  0  0  0  0  0  0  0
   15.9310    0.5119   56.1797 C   0  0  0  0  0  0  0  0  0  0  0  0
   15.3552   -0.9944   54.3807 C   0  0  0  0  0  0  0  0  0  0  0  0
   13.7284   -0.4769   56.0904 C   0  0  0  0  0  0  0  0  0  0  0  0
   14.6546    0.3549   56.7198 C   0  0  0  0  0  0  0  0  0  0  0  0
   14.0788   -1.1515   54.9208 C   0  0  0  0  0  0  0  0  0  0  0  0
   12.9372   -2.1787   54.1441 Cl  0  0  0  0  0  0  0  0  0  0  0  0
 13 14  2  0
 13 15  1  0
 14 16  1  0
 15 17  2  0
 27 28  2  0
 27 29  1  0
 28 31  1  0
 16 18  2  0
 17 18  1  0
 29 32  2  0
 30 31  2  0
 30 32  1  0
 31 25  1  0
 18 12  1  0
 32 33  1  0
  2  9  1  0
  2  4  2  0
  2  5  1  0
  3  5  1  0
  3  6  1  0
  3  7  2  0
 21 23  1  0
 21 25  1  0
 22 24  1  0
 22 25  1  0
 23 26  1  0
 24 26  1  0
  8  9  1  0
 19  1  1  0
 19 20  1  0
  1  6  1  0
 10 11  1  0
 10  5  1  0
 20 26  1  0
 11 12  1  0
  4  6  1  0
M  CHG  1  26   1
M  END
>  <minimizedAffinity>  (28) 
-8.43681

>  <CNNscore>  (28) 
0.7325803638

>  <CNNaffinity>  (28) 
7.1526870728

>  <CNN_VS>  (28) 
5.2399182320

>  <CNNaffinity_variance>  (28) 
0.0185376592

>  <salt_bridge_distance>  (28) 
(3.1932512992246638, 3.1932512992246638)

$$$$

     RDKit          3D

 33 36  0  0  0  0  0  0  0  0999 V2000
   12.4398   -0.1302   57.2264 C   0  0  0  0  0  0  0  0  0  0  0  0
   14.6643    0.7923   54.7045 C   0  0  0  0  0  0  0  0  0  0  0  0
   14.9110   -0.2073   56.6236 C   0  0  0  0  0  0  0  0  0  0  0  0
   13.4478    0.7472   55.1633 N   0  0  0  0  0  0  0  0  0  0  0  0
   15.5967    0.2426   55.5109 N   0  0  0  0  0  0  0  0  0  0  0  0
   13.5754    0.1236   56.3720 N   0  0  0  0  0  0  0  0  0  0  0  0
   15.3610   -0.7702   57.6114 O   0  0  0  0  0  0  0  0  0  0  0  0
   13.8360    2.1017   52.7796 C   0  0  0  0  0  0  0  0  0  0  0  0
   15.0290    1.3948   53.3897 C   0  0  0  0  0  0  0  0  0  0  0  0
   17.0225    0.1446   55.2617 C   0  0  0  0  0  0  0  0  0  0  0  0
   17.7650    1.1121   56.1652 C   0  0  0  0  0  0  0  0  0  0  0  0
   19.1656    0.9518   55.9792 O   0  0  0  0  0  0  0  0  0  0  0  0
   20.9933   -2.1403   58.0778 C   0  0  0  0  0  0  0  0  0  0  0  0
   19.7605   -1.6438   58.5011 C   0  0  0  0  0  0  0  0  0  0  0  0
   21.6135   -1.5997   56.9514 C   0  0  0  0  0  0  0  0  0  0  0  0
   19.1477   -0.6067   57.7978 C   0  0  0  0  0  0  0  0  0  0  0  0
   21.0007   -0.5625   56.2482 C   0  0  0  0  0  0  0  0  0  0  0  0
   19.7679   -0.0660   56.6713 C   0  0  0  0  0  0  0  0  0  0  0  0
   11.8982    1.1698   57.8154 C   0  0  0  0  0  0  0  0  0  0  0  0
   12.7877    1.7164   58.9250 C   0  0  0  0  0  0  0  0  0  0  0  0
   11.9580    0.0688   62.2747 C   0  0  0  0  0  0  0  0  0  0  0  0
    9.9940    1.3429   61.5209 C   0  0  0  0  0  0  0  0  0  0  0  0
   12.6157    0.2028   60.9064 C   0  0  0  0  0  0  0  0  0  0  0  0
   10.6103    1.5088   60.1334 C   0  0  0  0  0  0  0  0  0  0  0  0
   10.5015    0.1069   62.1252 N   0  0  0  0  0  0  0  0  0  0  0  0
   12.1209    1.4773   60.2504 N   0  0  0  0  0  0  0  0  0  0  0  0
    8.4239   -2.6738   63.3668 C   0  0  0  0  0  0  0  0  0  0  0  0
    9.2050   -1.5183   63.3486 C   0  0  0  0  0  0  0  0  0  0  0  0
    8.1610   -3.3567   62.1793 C   0  0  0  0  0  0  0  0  0  0  0  0
    9.4601   -1.7285   60.9553 C   0  0  0  0  0  0  0  0  0  0  0  0
    9.7231   -1.0456   62.1429 C   0  0  0  0  0  0  0  0  0  0  0  0
    8.6790   -2.8840   60.9736 C   0  0  0  0  0  0  0  0  0  0  0  0
    8.3532   -3.7266   59.5087 Cl  0  0  0  0  0  0  0  0  0  0  0  0
 13 14  2  0
 13 15  1  0
 14 16  1  0
 15 17  2  0
 27 28  2  0
 27 29  1  0
 28 31  1  0
 16 18  2  0
 17 18  1  0
 29 32  2  0
 30 31  2  0
 30 32  1  0
 31 25  1  0
 18 12  1  0
 32 33  1  0
  2  9  1  0
  2  4  2  0
  2  5  1  0
  3  5  1  0
  3  6  1  0
  3  7  2  0
 21 23  1  0
 21 25  1  0
 22 24  1  0
 22 25  1  0
 23 26  1  0
 24 26  1  0
  8  9  1  0
 19  1  1  0
 19 20  1  0
  1  6  1  0
 10 11  1  0
 10  5  1  0
 20 26  1  0
 11 12  1  0
  4  6  1  0
M  CHG  1  26   1
M  END
>  <minimizedAffinity>  (29) 
-10.19501

>  <CNNscore>  (29) 
0.6617967486

>  <CNNaffinity>  (29) 
7.1491613388

>  <CNN_VS>  (29) 
4.7312917709

>  <CNNaffinity_variance>  (29) 
0.3064574599

>  <salt_bridge_distance>  (29) 
(2.9591555315663958, 2.9591555315663958)

$$$$

     RDKit          3D

 33 36  0  0  0  0  0  0  0  0999 V2000
   11.3102    0.2761   61.9887 C   0  0  0  0  0  0  0  0  0  0  0  0
    8.8998   -2.2435   61.9515 C   0  0  0  0  0  0  0  0  0  0  0  0
    9.7692   -1.0296   63.5370 C   0  0  0  0  0  0  0  0  0  0  0  0
    9.7412   -1.4892   61.3071 N   0  0  0  0  0  0  0  0  0  0  0  0
    8.8517   -2.0319   63.2838 N   0  0  0  0  0  0  0  0  0  0  0  0
   10.3035   -0.7160   62.2828 N   0  0  0  0  0  0  0  0  0  0  0  0
   10.0566   -0.5228   64.6121 O   0  0  0  0  0  0  0  0  0  0  0  0
    8.5520   -3.5816   59.9036 C   0  0  0  0  0  0  0  0  0  0  0  0
    8.0384   -3.2683   61.2940 C   0  0  0  0  0  0  0  0  0  0  0  0
    8.0115   -2.7148   64.2494 C   0  0  0  0  0  0  0  0  0  0  0  0
    6.8069   -1.8514   64.5769 C   0  0  0  0  0  0  0  0  0  0  0  0
    5.7421   -2.1707   63.6903 O   0  0  0  0  0  0  0  0  0  0  0  0
    3.4251   -5.4879   64.6564 C   0  0  0  0  0  0  0  0  0  0  0  0
    3.5714   -4.4483   65.5747 C   0  0  0  0  0  0  0  0  0  0  0  0
    4.0562   -5.4156   63.4145 C   0  0  0  0  0  0  0  0  0  0  0  0
    4.3486   -3.3361   65.2512 C   0  0  0  0  0  0  0  0  0  0  0  0
    4.8335   -4.3034   63.0910 C   0  0  0  0  0  0  0  0  0  0  0  0
    4.9797   -3.2637   64.0092 C   0  0  0  0  0  0  0  0  0  0  0  0
   12.3230   -0.2566   60.9785 C   0  0  0  0  0  0  0  0  0  0  0  0
   13.7242   -0.3648   61.5668 C   0  0  0  0  0  0  0  0  0  0  0  0
   15.0640    1.7327   58.6636 C   0  0  0  0  0  0  0  0  0  0  0  0
   16.6698   -0.0697   59.1338 C   0  0  0  0  0  0  0  0  0  0  0  0
   14.0079    1.0704   59.5404 C   0  0  0  0  0  0  0  0  0  0  0  0
   15.6487   -0.7727   60.0259 C   0  0  0  0  0  0  0  0  0  0  0  0
   15.9588    0.7108   58.1160 N   0  0  0  0  0  0  0  0  0  0  0  0
   14.7055    0.2576   60.6138 N   0  0  0  0  0  0  0  0  0  0  0  0
   16.5045    0.2804   54.4956 C   0  0  0  0  0  0  0  0  0  0  0  0
   16.6302    0.7593   55.7996 C   0  0  0  0  0  0  0  0  0  0  0  0
   15.5811   -0.7247   54.2078 C   0  0  0  0  0  0  0  0  0  0  0  0
   14.9094   -0.7721   56.5280 C   0  0  0  0  0  0  0  0  0  0  0  0
   15.8328    0.2331   56.8158 C   0  0  0  0  0  0  0  0  0  0  0  0
   14.7836   -1.2509   55.2240 C   0  0  0  0  0  0  0  0  0  0  0  0
   13.6455   -2.4918   54.8682 Cl  0  0  0  0  0  0  0  0  0  0  0  0
 13 14  2  0
 13 15  1  0
 14 16  1  0
 15 17  2  0
 27 28  2  0
 27 29  1  0
 28 31  1  0
 16 18  2  0
 17 18  1  0
 29 32  2  0
 30 31  2  0
 30 32  1  0
 31 25  1  0
 18 12  1  0
 32 33  1  0
  2  9  1  0
  2  4  2  0
  2  5  1  0
  3  5  1  0
  3  6  1  0
  3  7  2  0
 21 23  1  0
 21 25  1  0
 22 24  1  0
 22 25  1  0
 23 26  1  0
 24 26  1  0
  8  9  1  0
 19  1  1  0
 19 20  1  0
  1  6  1  0
 10 11  1  0
 10  5  1  0
 20 26  1  0
 11 12  1  0
  4  6  1  0
M  CHG  1  26   1
M  END
>  <minimizedAffinity>  (30) 
-8.54307

>  <CNNscore>  (30) 
0.6380731463

>  <CNNaffinity>  (30) 
7.1288619041

>  <CNN_VS>  (30) 
4.5487351418

>  <CNNaffinity_variance>  (30) 
0.0470417105

>  <salt_bridge_distance>  (30) 
(3.2297912084219935, 3.2297912084219935)

$$$$

     RDKit          3D

 33 36  0  0  0  0  0  0  0  0999 V2000
   14.9982    0.1974   60.3358 C   0  0  0  0  0  0  0  0  0  0  0  0
   14.9359   -0.4178   56.9040 C   0  0  0  0  0  0  0  0  0  0  0  0
   16.0391    0.9858   58.1514 C   0  0  0  0  0  0  0  0  0  0  0  0
   14.5070   -0.6979   58.0998 N   0  0  0  0  0  0  0  0  0  0  0  0
   15.8528    0.5710   56.8461 N   0  0  0  0  0  0  0  0  0  0  0  0
   15.1851    0.1732   58.9045 N   0  0  0  0  0  0  0  0  0  0  0  0
   16.7817    1.8643   58.5660 O   0  0  0  0  0  0  0  0  0  0  0  0
   12.9748   -1.3537   55.7276 C   0  0  0  0  0  0  0  0  0  0  0  0
   14.4710   -1.1221   55.6741 C   0  0  0  0  0  0  0  0  0  0  0  0
   16.5069    1.0908   55.6600 C   0  0  0  0  0  0  0  0  0  0  0  0
   17.6838    0.2035   55.2975 C   0  0  0  0  0  0  0  0  0  0  0  0
   18.8554    0.6862   55.9427 O   0  0  0  0  0  0  0  0  0  0  0  0
   21.1056   -2.0965   58.0639 C   0  0  0  0  0  0  0  0  0  0  0  0
   19.8756   -1.6682   58.5631 C   0  0  0  0  0  0  0  0  0  0  0  0
   21.5814   -1.5912   56.8538 C   0  0  0  0  0  0  0  0  0  0  0  0
   19.1212   -0.7348   57.8523 C   0  0  0  0  0  0  0  0  0  0  0  0
   20.8269   -0.6578   56.1430 C   0  0  0  0  0  0  0  0  0  0  0  0
   19.5969   -0.2296   56.6422 C   0  0  0  0  0  0  0  0  0  0  0  0
   13.6318   -0.3659   60.7177 C   0  0  0  0  0  0  0  0  0  0  0  0
   12.4860    0.4677   60.1580 C   0  0  0  0  0  0  0  0  0  0  0  0
   11.1824    0.9663   63.7183 C   0  0  0  0  0  0  0  0  0  0  0  0
    9.4549    1.7214   62.1389 C   0  0  0  0  0  0  0  0  0  0  0  0
   11.9665    0.2956   62.5966 C   0  0  0  0  0  0  0  0  0  0  0  0
   10.2035    1.0689   60.9785 C   0  0  0  0  0  0  0  0  0  0  0  0
    9.7589    0.9925   63.3745 N   0  0  0  0  0  0  0  0  0  0  0  0
   11.6841    1.0276   61.2991 N   0  0  0  0  0  0  0  0  0  0  0  0
    6.9629   -0.4064   65.3279 C   0  0  0  0  0  0  0  0  0  0  0  0
    7.8738    0.5083   64.7996 C   0  0  0  0  0  0  0  0  0  0  0  0
    7.0293   -1.7497   64.9580 C   0  0  0  0  0  0  0  0  0  0  0  0
    8.9175   -1.2635   63.5313 C   0  0  0  0  0  0  0  0  0  0  0  0
    8.8511    0.0799   63.9013 C   0  0  0  0  0  0  0  0  0  0  0  0
    8.0066   -2.1782   64.0597 C   0  0  0  0  0  0  0  0  0  0  0  0
    8.0872   -3.8355   63.6029 Cl  0  0  0  0  0  0  0  0  0  0  0  0
 13 14  2  0
 13 15  1  0
 14 16  1  0
 15 17  2  0
 27 28  2  0
 27 29  1  0
 28 31  1  0
 16 18  2  0
 17 18  1  0
 29 32  2  0
 30 31  2  0
 30 32  1  0
 31 25  1  0
 18 12  1  0
 32 33  1  0
  2  9  1  0
  2  4  2  0
  2  5  1  0
  3  5  1  0
  3  6  1  0
  3  7  2  0
 21 23  1  0
 21 25  1  0
 22 24  1  0
 22 25  1  0
 23 26  1  0
 24 26  1  0
  8  9  1  0
 19  1  1  0
 19 20  1  0
  1  6  1  0
 10 11  1  0
 10  5  1  0
 20 26  1  0
 11 12  1  0
  4  6  1  0
M  CHG  1  26   1
M  END
>  <minimizedAffinity>  (31) 
-9.97702

>  <CNNscore>  (31) 
0.5360581875

>  <CNNaffinity>  (31) 
7.2363600731

>  <CNN_VS>  (31) 
3.8791100979

>  <CNNaffinity_variance>  (31) 
0.0695557445

>  <salt_bridge_distance>  (31) 
(3.1377137823581034, 3.1377137823581034)

$$$$

     RDKit          3D

 33 36  0  0  0  0  0  0  0  0999 V2000
   16.1898    0.0812   60.6628 C   0  0  0  0  0  0  0  0  0  0  0  0
   18.4249   -0.4915   58.0482 C   0  0  0  0  0  0  0  0  0  0  0  0
   16.6511    0.7556   58.2526 C   0  0  0  0  0  0  0  0  0  0  0  0
   18.0490   -0.7251   59.2715 N   0  0  0  0  0  0  0  0  0  0  0  0
   17.6487    0.3815   57.3719 N   0  0  0  0  0  0  0  0  0  0  0  0
   16.9327    0.0470   59.4254 N   0  0  0  0  0  0  0  0  0  0  0  0
   15.7258    1.5315   58.0603 O   0  0  0  0  0  0  0  0  0  0  0  0
   20.5917   -1.5990   58.4770 C   0  0  0  0  0  0  0  0  0  0  0  0
   19.6200   -1.1221   57.4169 C   0  0  0  0  0  0  0  0  0  0  0  0
   17.8247    0.8333   56.0047 C   0  0  0  0  0  0  0  0  0  0  0  0
   16.9430    0.0139   55.0801 C   0  0  0  0  0  0  0  0  0  0  0  0
   15.7552    0.7409   54.7932 O   0  0  0  0  0  0  0  0  0  0  0  0
   12.2202   -1.4428   54.5894 C   0  0  0  0  0  0  0  0  0  0  0  0
   12.9721   -1.4414   55.7643 C   0  0  0  0  0  0  0  0  0  0  0  0
   12.6539   -0.7126   53.4828 C   0  0  0  0  0  0  0  0  0  0  0  0
   14.1576   -0.7096   55.8327 C   0  0  0  0  0  0  0  0  0  0  0  0
   13.8395    0.0191   53.5512 C   0  0  0  0  0  0  0  0  0  0  0  0
   14.5914    0.0207   54.7261 C   0  0  0  0  0  0  0  0  0  0  0  0
   14.8743   -0.6819   60.5312 C   0  0  0  0  0  0  0  0  0  0  0  0
   13.9264   -0.4043   61.6911 C   0  0  0  0  0  0  0  0  0  0  0  0
   10.1982    0.2234   61.1167 C   0  0  0  0  0  0  0  0  0  0  0  0
   11.4444    1.0806   59.1775 C   0  0  0  0  0  0  0  0  0  0  0  0
   11.4302   -0.5129   61.6292 C   0  0  0  0  0  0  0  0  0  0  0  0
   12.7084    0.3646   59.6491 C   0  0  0  0  0  0  0  0  0  0  0  0
   10.2704    0.3457   59.6590 N   0  0  0  0  0  0  0  0  0  0  0  0
   12.6693    0.2230   61.1575 N   0  0  0  0  0  0  0  0  0  0  0  0
    9.1507   -1.3645   56.5912 C   0  0  0  0  0  0  0  0  0  0  0  0
    9.8610   -0.5212   57.4455 C   0  0  0  0  0  0  0  0  0  0  0  0
    8.1407   -2.1817   57.0989 C   0  0  0  0  0  0  0  0  0  0  0  0
    8.5515   -1.3124   59.3153 C   0  0  0  0  0  0  0  0  0  0  0  0
    9.5615   -0.4951   58.8075 C   0  0  0  0  0  0  0  0  0  0  0  0
    7.8412   -2.1556   58.4610 C   0  0  0  0  0  0  0  0  0  0  0  0
    6.5957   -3.1650   59.0868 Cl  0  0  0  0  0  0  0  0  0  0  0  0
 13 14  2  0
 13 15  1  0
 14 16  1  0
 15 17  2  0
 27 28  2  0
 27 29  1  0
 28 31  1  0
 16 18  2  0
 17 18  1  0
 29 32  2  0
 30 31  2  0
 30 32  1  0
 31 25  1  0
 18 12  1  0
 32 33  1  0
  2  9  1  0
  2  4  2  0
  2  5  1  0
  3  5  1  0
  3  6  1  0
  3  7  2  0
 21 23  1  0
 21 25  1  0
 22 24  1  0
 22 25  1  0
 23 26  1  0
 24 26  1  0
  8  9  1  0
 19  1  1  0
 19 20  1  0
  1  6  1  0
 10 11  1  0
 10  5  1  0
 20 26  1  0
 11 12  1  0
  4  6  1  0
M  CHG  1  26   1
M  END
>  <minimizedAffinity>  (32) 
-8.87011

>  <CNNscore>  (32) 
0.5285251141

>  <CNNaffinity>  (32) 
7.3872847557

>  <CNN_VS>  (32) 
3.9043655396

>  <CNNaffinity_variance>  (32) 
0.4472289085

>  <salt_bridge_distance>  (32) 
(3.250559542601858, 3.250559542601858)

$$$$

     RDKit          3D

 33 36  0  0  0  0  0  0  0  0999 V2000
   11.1452    0.1134   63.1403 C   0  0  0  0  0  0  0  0  0  0  0  0
    8.5140   -2.1697   63.2959 C   0  0  0  0  0  0  0  0  0  0  0  0
    9.0578   -0.4316   64.4902 C   0  0  0  0  0  0  0  0  0  0  0  0
    9.6024   -1.7531   62.7177 N   0  0  0  0  0  0  0  0  0  0  0  0
    8.1183   -1.4369   64.3581 N   0  0  0  0  0  0  0  0  0  0  0  0
    9.9665   -0.6599   63.4515 N   0  0  0  0  0  0  0  0  0  0  0  0
    9.0952    0.4622   65.3238 O   0  0  0  0  0  0  0  0  0  0  0  0
    7.7455   -3.4489   61.3264 C   0  0  0  0  0  0  0  0  0  0  0  0
    7.7400   -3.3599   62.8388 C   0  0  0  0  0  0  0  0  0  0  0  0
    6.9497   -1.6584   65.1886 C   0  0  0  0  0  0  0  0  0  0  0  0
    5.7268   -1.0609   64.5168 C   0  0  0  0  0  0  0  0  0  0  0  0
    4.5544   -1.6701   65.0422 O   0  0  0  0  0  0  0  0  0  0  0  0
    3.7031   -5.5278   63.7383 C   0  0  0  0  0  0  0  0  0  0  0  0
    3.9969   -4.5276   62.8116 C   0  0  0  0  0  0  0  0  0  0  0  0
    3.6940   -5.2344   65.1020 C   0  0  0  0  0  0  0  0  0  0  0  0
    4.2819   -3.2339   63.2486 C   0  0  0  0  0  0  0  0  0  0  0  0
    3.9790   -3.9407   65.5389 C   0  0  0  0  0  0  0  0  0  0  0  0
    4.2730   -2.9405   64.6123 C   0  0  0  0  0  0  0  0  0  0  0  0
   11.4115    0.1218   61.6373 C   0  0  0  0  0  0  0  0  0  0  0  0
   12.6803   -0.6378   61.2708 C   0  0  0  0  0  0  0  0  0  0  0  0
   14.1461    1.8442   58.7579 C   0  0  0  0  0  0  0  0  0  0  0  0
   15.9987    0.7471   59.9466 C   0  0  0  0  0  0  0  0  0  0  0  0
   13.1476    0.8297   59.3024 C   0  0  0  0  0  0  0  0  0  0  0  0
   15.0392   -0.2927   60.5218 C   0  0  0  0  0  0  0  0  0  0  0  0
   15.4714    1.2277   58.6654 N   0  0  0  0  0  0  0  0  0  0  0  0
   13.6547    0.3133   60.6349 N   0  0  0  0  0  0  0  0  0  0  0  0
   15.6430   -0.1074   55.2334 C   0  0  0  0  0  0  0  0  0  0  0  0
   15.1253    0.3663   56.4389 C   0  0  0  0  0  0  0  0  0  0  0  0
   17.0234   -0.1924   55.0527 C   0  0  0  0  0  0  0  0  0  0  0  0
   17.3686    0.6701   57.2829 C   0  0  0  0  0  0  0  0  0  0  0  0
   15.9880    0.7551   57.4637 C   0  0  0  0  0  0  0  0  0  0  0  0
   17.8862    0.1963   56.0774 C   0  0  0  0  0  0  0  0  0  0  0  0
   19.5894    0.0921   55.8531 Cl  0  0  0  0  0  0  0  0  0  0  0  0
 13 14  2  0
 13 15  1  0
 14 16  1  0
 15 17  2  0
 27 28  2  0
 27 29  1  0
 28 31  1  0
 16 18  2  0
 17 18  1  0
 29 32  2  0
 30 31  2  0
 30 32  1  0
 31 25  1  0
 18 12  1  0
 32 33  1  0
  2  9  1  0
  2  4  2  0
  2  5  1  0
  3  5  1  0
  3  6  1  0
  3  7  2  0
 21 23  1  0
 21 25  1  0
 22 24  1  0
 22 25  1  0
 23 26  1  0
 24 26  1  0
  8  9  1  0
 19  1  1  0
 19 20  1  0
  1  6  1  0
 10 11  1  0
 10  5  1  0
 20 26  1  0
 11 12  1  0
  4  6  1  0
M  CHG  1  26   1
M  END
>  <minimizedAffinity>  (33) 
-8.20634

>  <CNNscore>  (33) 
0.4819467664

>  <CNNaffinity>  (33) 
6.7943558693

>  <CNN_VS>  (33) 
3.2745177746

>  <CNNaffinity_variance>  (33) 
0.0486600995

>  <salt_bridge_distance>  (33) 
(3.0928517245416067, 3.0928517245416067)

$$$$

     RDKit          3D

 25 28  0  0  0  0  0  0  0  0999 V2000
   19.5611   -1.5190   58.9677 C   0  0  0  0  0  0  0  0  0  0  0  0
   20.5235   -0.9860   58.1238 C   0  0  0  0  0  0  0  0  0  0  0  0
   18.2052   -1.3083   58.7022 C   0  0  0  0  0  0  0  0  0  0  0  0
   20.1280   -0.2489   57.0127 C   0  0  0  0  0  0  0  0  0  0  0  0
   16.1268    0.8474   53.7729 C   0  0  0  0  0  0  0  0  0  0  0  0
   14.7922    0.5845   53.4831 C   0  0  0  0  0  0  0  0  0  0  0  0
   14.5097   -0.2964   55.7095 C   0  0  0  0  0  0  0  0  0  0  0  0
   17.7692   -0.5551   57.5903 C   0  0  0  0  0  0  0  0  0  0  0  0
   15.8565   -0.0315   56.0413 C   0  0  0  0  0  0  0  0  0  0  0  0
   18.7650   -0.0381   56.7379 C   0  0  0  0  0  0  0  0  0  0  0  0
   16.6627    0.5374   55.0355 C   0  0  0  0  0  0  0  0  0  0  0  0
   13.9836    0.0090   54.4513 C   0  0  0  0  0  0  0  0  0  0  0  0
   16.3934   -0.3523   57.3136 N   0  0  0  0  0  0  0  0  0  0  0  0
   18.3780    0.9405   55.3002 S   0  0  0  0  0  0  0  0  0  0  0  0
   12.2489   -2.1132   54.4661 C   0  0  0  0  0  0  0  0  0  0  0  0
   12.2754   -0.3477   54.0865 S   0  0  0  0  0  0  0  0  0  0  0  0
   15.4447   -0.5593   58.4155 C   0  0  0  0  0  0  0  0  0  0  0  0
   14.4844    0.6122   58.5825 C   0  0  0  0  0  0  0  0  0  0  0  0
   11.5865    1.0555   57.3123 C   0  0  0  0  0  0  0  0  0  0  0  0
   11.0554    2.1198   58.2640 C   0  0  0  0  0  0  0  0  0  0  0  0
   12.1046   -0.1614   58.0719 C   0  0  0  0  0  0  0  0  0  0  0  0
   12.0857    2.5082   59.3129 C   0  0  0  0  0  0  0  0  0  0  0  0
   13.1308    0.1896   59.1527 C   0  0  2  0  0  0  0  0  0  0  0  0
   11.6143    0.7832   61.0831 C   0  0  0  0  0  0  0  0  0  0  0  0
   12.5943    1.2925   60.0550 N   0  0  2  0  0  0  0  0  0  0  0  0
  1  2  2  0
  1  3  1  0
  2  4  1  0
  3  8  2  0
  4 10  2  0
  5  6  1  0
  5 11  2  0
  6 12  2  0
  7  9  2  0
  7 12  1  0
  8 10  1  0
  8 13  1  0
  9 11  1  0
  9 13  1  0
 10 14  1  0
 11 14  1  0
 12 16  1  0
 19 20  1  0
 19 21  1  0
 20 22  1  0
 21 23  1  0
 22 25  1  0
 23 18  1  6
 23 25  1  0
 25 24  1  6
 15 16  1  0
 18 17  1  0
 17 13  1  0
M  CHG  1  25   1
M  END
>  <minimizedAffinity>  (34) 
-7.35709

>  <CNNscore>  (34) 
0.5405741930

>  <CNNaffinity>  (34) 
7.0924224854

>  <CNN_VS>  (34) 
3.8339805603

>  <CNNaffinity_variance>  (34) 
0.1455685794

>  <salt_bridge_distance>  (34) 
(2.9292219683731715, 2.9292219683731715)

$$$$

     RDKit          3D

 25 28  0  0  0  0  0  0  0  0999 V2000
   10.0352    3.4276   60.7022 C   0  0  0  0  0  0  0  0  0  0  0  0
    8.8547    2.7013   60.7399 C   0  0  0  0  0  0  0  0  0  0  0  0
   11.0913    3.0026   59.8915 C   0  0  0  0  0  0  0  0  0  0  0  0
    8.7304    1.5552   59.9619 C   0  0  0  0  0  0  0  0  0  0  0  0
   10.6791   -1.0921   55.8507 C   0  0  0  0  0  0  0  0  0  0  0  0
   11.6461   -1.0909   54.8510 C   0  0  0  0  0  0  0  0  0  0  0  0
   12.8909    0.5579   56.0939 C   0  0  0  0  0  0  0  0  0  0  0  0
   11.0033    1.8375   59.0986 C   0  0  0  0  0  0  0  0  0  0  0  0
   11.9347    0.5724   57.1329 C   0  0  0  0  0  0  0  0  0  0  0  0
    9.7880    1.1258   59.1404 C   0  0  0  0  0  0  0  0  0  0  0  0
   10.8117   -0.2648   56.9800 C   0  0  0  0  0  0  0  0  0  0  0  0
   12.7515   -0.2626   54.9711 C   0  0  0  0  0  0  0  0  0  0  0  0
   12.0700    1.4136   58.2661 N   0  0  0  0  0  0  0  0  0  0  0  0
    9.5233   -0.3681   58.2063 S   0  0  0  0  0  0  0  0  0  0  0  0
   14.8918   -1.7456   54.1149 C   0  0  0  0  0  0  0  0  0  0  0  0
   13.9898   -0.2401   53.6887 S   0  0  0  0  0  0  0  0  0  0  0  0
   13.4080    1.9432   58.5595 C   0  0  0  0  0  0  0  0  0  0  0  0
   14.3038    0.9139   59.2382 C   0  0  0  0  0  0  0  0  0  0  0  0
   15.1132   -1.3915   61.2966 C   0  0  0  0  0  0  0  0  0  0  0  0
   13.7235   -1.8705   61.6964 C   0  0  0  0  0  0  0  0  0  0  0  0
   15.2533    0.1171   61.4712 C   0  0  0  0  0  0  0  0  0  0  0  0
   12.6290   -1.1149   60.9590 C   0  0  0  0  0  0  0  0  0  0  0  0
   14.1570    0.9147   60.7595 C   0  0  2  0  0  0  0  0  0  0  0  0
   12.3184    0.8576   62.4900 C   0  0  0  0  0  0  0  0  0  0  0  0
   12.7824    0.3792   61.1363 N   0  0  2  0  0  0  0  0  0  0  0  0
  1  2  2  0
  1  3  1  0
  2  4  1  0
  3  8  2  0
  4 10  2  0
  5  6  1  0
  5 11  2  0
  6 12  2  0
  7  9  2  0
  7 12  1  0
  8 10  1  0
  8 13  1  0
  9 11  1  0
  9 13  1  0
 10 14  1  0
 11 14  1  0
 12 16  1  0
 19 20  1  0
 19 21  1  0
 20 22  1  0
 21 23  1  0
 22 25  1  0
 23 18  1  6
 23 25  1  0
 25 24  1  1
 15 16  1  0
 18 17  1  0
 17 13  1  0
M  CHG  1  25   1
M  END
>  <minimizedAffinity>  (35) 
-4.77126

>  <CNNscore>  (35) 
0.4040771127

>  <CNNaffinity>  (35) 
6.5804328918

>  <CNN_VS>  (35) 
2.6590023041

>  <CNNaffinity_variance>  (35) 
0.1820662022

>  <salt_bridge_distance>  (35) 
(3.0729103615302544, 3.0729103615302544)

$$$$

     RDKit          3D

 25 28  0  0  0  0  0  0  0  0999 V2000
    8.9250    0.7610   59.2987 C   0  0  0  0  0  0  0  0  0  0  0  0
    8.2143   -0.3187   58.7970 C   0  0  0  0  0  0  0  0  0  0  0  0
   10.1922    1.0601   58.7906 C   0  0  0  0  0  0  0  0  0  0  0  0
    8.7694   -1.0931   57.7839 C   0  0  0  0  0  0  0  0  0  0  0  0
   12.4434   -1.2687   54.0184 C   0  0  0  0  0  0  0  0  0  0  0  0
   13.4771   -0.5704   53.4034 C   0  0  0  0  0  0  0  0  0  0  0  0
   13.5852    0.8983   55.3124 C   0  0  0  0  0  0  0  0  0  0  0  0
   10.7903    0.2878   57.7709 C   0  0  0  0  0  0  0  0  0  0  0  0
   12.5463    0.2042   55.9706 C   0  0  0  0  0  0  0  0  0  0  0  0
   10.0418   -0.7936   57.2653 C   0  0  0  0  0  0  0  0  0  0  0  0
   11.9719   -0.8855   55.2866 C   0  0  0  0  0  0  0  0  0  0  0  0
   14.0463    0.5163   54.0496 C   0  0  0  0  0  0  0  0  0  0  0  0
   12.0703    0.5991   57.2463 N   0  0  0  0  0  0  0  0  0  0  0  0
   10.6605   -1.8682   55.9859 S   0  0  0  0  0  0  0  0  0  0  0  0
   14.3806    2.6087   52.3108 C   0  0  0  0  0  0  0  0  0  0  0  0
   15.3610    1.4293   53.2646 S   0  0  0  0  0  0  0  0  0  0  0  0
   12.9439    1.4555   58.0590 C   0  0  0  0  0  0  0  0  0  0  0  0
   13.9284    0.6501   58.8985 C   0  0  0  0  0  0  0  0  0  0  0  0
   14.6123   -1.2852   61.3468 C   0  0  0  0  0  0  0  0  0  0  0  0
   13.1999   -1.5829   61.8337 C   0  0  0  0  0  0  0  0  0  0  0  0
   14.8582    0.2160   61.2372 C   0  0  0  0  0  0  0  0  0  0  0  0
   12.1476   -0.9019   60.9727 C   0  0  0  0  0  0  0  0  0  0  0  0
   13.8073    0.9430   60.3937 C   0  0  2  0  0  0  0  0  0  0  0  0
   11.9983    1.3370   62.1114 C   0  0  0  0  0  0  0  0  0  0  0  0
   12.4058    0.5846   60.8685 N   0  0  2  0  0  0  0  0  0  0  0  0
  1  2  2  0
  1  3  1  0
  2  4  1  0
  3  8  2  0
  4 10  2  0
  5  6  1  0
  5 11  2  0
  6 12  2  0
  7  9  2  0
  7 12  1  0
  8 10  1  0
  8 13  1  0
  9 11  1  0
  9 13  1  0
 10 14  1  0
 11 14  1  0
 12 16  1  0
 19 20  1  0
 19 21  1  0
 20 22  1  0
 21 23  1  0
 22 25  1  0
 23 18  1  6
 23 25  1  0
 25 24  1  1
 15 16  1  0
 18 17  1  0
 17 13  1  0
M  CHG  1  25   1
M  END
>  <minimizedAffinity>  (36) 
-4.74999

>  <CNNscore>  (36) 
0.3232362270

>  <CNNaffinity>  (36) 
6.5451292992

>  <CNN_VS>  (36) 
2.1156229973

>  <CNNaffinity_variance>  (36) 
0.1390656978

>  <salt_bridge_distance>  (36) 
(3.140156214267056, 3.140156214267056)

$$$$

     RDKit          3D

 25 28  0  0  0  0  0  0  0  0999 V2000
   17.3596    0.6197   57.8830 C   0  0  0  0  0  0  0  0  0  0  0  0
   17.7416    0.2176   56.6122 C   0  0  0  0  0  0  0  0  0  0  0  0
   16.0040    0.7577   58.1939 C   0  0  0  0  0  0  0  0  0  0  0  0
   16.7672   -0.0518   55.6570 C   0  0  0  0  0  0  0  0  0  0  0  0
   11.6734   -1.1315   54.8862 C   0  0  0  0  0  0  0  0  0  0  0  0
   10.4450   -1.3289   55.5080 C   0  0  0  0  0  0  0  0  0  0  0  0
   11.2993   -0.2401   57.4822 C   0  0  0  0  0  0  0  0  0  0  0  0
   14.9895    0.5042   57.2450 C   0  0  0  0  0  0  0  0  0  0  0  0
   12.5545   -0.0124   56.8768 C   0  0  0  0  0  0  0  0  0  0  0  0
   15.4017    0.0805   55.9660 C   0  0  0  0  0  0  0  0  0  0  0  0
   12.7253   -0.4872   55.5612 C   0  0  0  0  0  0  0  0  0  0  0  0
   10.2588   -0.8857   56.8085 C   0  0  0  0  0  0  0  0  0  0  0  0
   13.6139    0.6317   57.5643 N   0  0  0  0  0  0  0  0  0  0  0  0
   14.2449   -0.2693   54.6568 S   0  0  0  0  0  0  0  0  0  0  0  0
    9.1383   -2.5343   58.6900 C   0  0  0  0  0  0  0  0  0  0  0  0
    8.6941   -1.1472   57.6220 S   0  0  0  0  0  0  0  0  0  0  0  0
   13.2652    1.4378   58.7415 C   0  0  0  0  0  0  0  0  0  0  0  0
   12.5048    0.6350   59.7902 C   0  0  0  0  0  0  0  0  0  0  0  0
    9.4956    0.4861   60.8532 C   0  0  0  0  0  0  0  0  0  0  0  0
    8.9372    1.7457   60.2036 C   0  0  0  0  0  0  0  0  0  0  0  0
   10.7611    0.7852   61.6502 C   0  0  0  0  0  0  0  0  0  0  0  0
    9.9804    2.4574   59.3564 C   0  0  0  0  0  0  0  0  0  0  0  0
   11.8304    1.5205   60.8374 C   0  0  2  0  0  0  0  0  0  0  0  0
   11.0696    3.9151   61.0943 C   0  0  0  0  0  0  0  0  0  0  0  0
   11.2312    2.7437   60.1569 N   0  0  2  0  0  0  0  0  0  0  0  0
  1  2  2  0
  1  3  1  0
  2  4  1  0
  3  8  2  0
  4 10  2  0
  5  6  1  0
  5 11  2  0
  6 12  2  0
  7  9  2  0
  7 12  1  0
  8 10  1  0
  8 13  1  0
  9 11  1  0
  9 13  1  0
 10 14  1  0
 11 14  1  0
 12 16  1  0
 19 20  1  0
 19 21  1  0
 20 22  1  0
 21 23  1  0
 22 25  1  0
 23 18  1  6
 23 25  1  0
 25 24  1  1
 15 16  1  0
 18 17  1  0
 17 13  1  0
M  CHG  1  25   1
M  END
>  <minimizedAffinity>  (37) 
-7.63039

>  <CNNscore>  (37) 
0.2802246809

>  <CNNaffinity>  (37) 
6.6320886612

>  <CNN_VS>  (37) 
1.8584749699

>  <CNNaffinity_variance>  (37) 
0.2488521338

>  <salt_bridge_distance>  (37) 
(3.2494207391472103, 3.2494207391472103)

$$$$

     RDKit          3D

 30 33  0  0  0  0  0  0  0  0999 V2000
   20.4779   -1.5050   58.5642 C   0  0  0  0  0  0  0  0  0  0  0  0
   21.1684   -0.9492   57.4980 C   0  0  0  0  0  0  0  0  0  0  0  0
   14.4015   -0.0667   54.2913 C   0  0  0  0  0  0  0  0  0  0  0  0
   19.0847   -1.4105   58.6196 C   0  0  0  0  0  0  0  0  0  0  0  0
   20.4636   -0.3058   56.4861 C   0  0  0  0  0  0  0  0  0  0  0  0
   15.7397    0.3102   54.2474 C   0  0  0  0  0  0  0  0  0  0  0  0
   14.7215   -0.8420   56.5518 C   0  0  0  0  0  0  0  0  0  0  0  0
   13.8927   -0.6464   55.4435 C   0  0  0  0  0  0  0  0  0  0  0  0
   18.3391   -0.7540   57.6160 C   0  0  0  0  0  0  0  0  0  0  0  0
   16.0809   -0.4600   56.5457 C   0  0  0  0  0  0  0  0  0  0  0  0
   19.0614   -0.2123   56.5342 C   0  0  0  0  0  0  0  0  0  0  0  0
   16.5793    0.1108   55.3578 C   0  0  0  0  0  0  0  0  0  0  0  0
   16.9246   -0.6695   57.6656 N   0  0  0  0  0  0  0  0  0  0  0  0
   18.2683    0.6541   55.1945 S   0  0  0  0  0  0  0  0  0  0  0  0
   12.4983   -1.0573   55.4947 C   0  0  0  0  0  0  0  0  0  0  0  0
   11.9912   -1.8311   54.6651 O   0  0  0  0  0  0  0  0  0  0  0  0
   10.1958   -1.0632   56.5989 C   0  0  0  0  0  0  0  0  0  0  0  0
   11.6130   -0.5123   56.6242 C   0  0  0  0  0  0  0  0  0  0  0  0
   16.2799   -0.8854   58.9674 C   0  0  0  0  0  0  0  0  0  0  0  0
   16.0248    0.4195   59.7188 C   0  0  0  0  0  0  0  0  0  0  0  0
   14.7226    1.1134   59.3249 C   0  0  0  0  0  0  0  0  0  0  0  0
   13.7345    0.0609   61.2541 C   0  0  0  0  0  0  0  0  0  0  0  0
   12.3432    1.2592   59.6762 C   0  0  0  0  0  0  0  0  0  0  0  0
   12.5266   -0.6947   61.7988 C   0  0  0  0  0  0  0  0  0  0  0  0
   11.0951    0.5384   60.1758 C   0  0  0  0  0  0  0  0  0  0  0  0
   13.5409    0.4266   59.8452 N   0  0  0  0  0  0  0  0  0  0  0  0
   11.2666    0.1116   61.6117 N   0  0  0  0  0  0  0  0  0  0  0  0
   11.1097    1.2329   62.6022 C   0  0  0  0  0  0  0  0  0  0  0  0
   10.9094    0.6521   63.9881 C   0  0  0  0  0  0  0  0  0  0  0  0
   11.6811    1.3875   64.9284 O   0  0  0  0  0  0  0  0  0  0  0  0
  1  2  2  0
  1  4  1  0
  2  5  1  0
  3  6  1  0
  3  8  2  0
  4  9  2  0
  5 11  2  0
  6 12  2  0
  7  8  1  0
  7 10  2  0
  8 15  1  0
  9 11  1  0
  9 13  1  0
 10 12  1  0
 10 13  1  0
 11 14  1  0
 12 14  1  0
 15 18  1  0
 15 16  2  0
 22 24  1  0
 22 26  1  0
 23 25  1  0
 23 26  1  0
 24 27  1  0
 25 27  1  0
 17 18  1  0
 20 19  1  0
 20 21  1  0
 19 13  1  0
 21 26  1  0
 28 29  1  0
 28 27  1  0
 29 30  1  0
M  CHG  1  27   1
M  END
>  <minimizedAffinity>  (38) 
-9.33651

>  <CNNscore>  (38) 
0.9053113461

>  <CNNaffinity>  (38) 
7.8560881615

>  <CNN_VS>  (38) 
7.1122059822

>  <CNNaffinity_variance>  (38) 
0.0610901825

>  <salt_bridge_distance>  (38) 
(3.4136520341124403, 3.4136520341124403)

$$$$

     RDKit          3D

 30 33  0  0  0  0  0  0  0  0999 V2000
   20.5911   -1.7902   58.3764 C   0  0  0  0  0  0  0  0  0  0  0  0
   21.2467   -1.0650   57.3932 C   0  0  0  0  0  0  0  0  0  0  0  0
   14.3624    0.6134   54.8161 C   0  0  0  0  0  0  0  0  0  0  0  0
   19.2078   -1.6651   58.5313 C   0  0  0  0  0  0  0  0  0  0  0  0
   20.5168   -0.2211   56.5628 C   0  0  0  0  0  0  0  0  0  0  0  0
   15.7108    0.9505   54.7636 C   0  0  0  0  0  0  0  0  0  0  0  0
   14.7688   -0.5834   56.8693 C   0  0  0  0  0  0  0  0  0  0  0  0
   13.8915   -0.1571   55.8684 C   0  0  0  0  0  0  0  0  0  0  0  0
   18.4381   -0.8086   57.7139 C   0  0  0  0  0  0  0  0  0  0  0  0
   16.1407   -0.2491   56.8536 C   0  0  0  0  0  0  0  0  0  0  0  0
   19.1241   -0.0953   56.7109 C   0  0  0  0  0  0  0  0  0  0  0  0
   16.5989    0.5198   55.7654 C   0  0  0  0  0  0  0  0  0  0  0  0
   17.0329   -0.6916   57.8625 N   0  0  0  0  0  0  0  0  0  0  0  0
   18.2979    1.0320   55.6058 S   0  0  0  0  0  0  0  0  0  0  0  0
   12.4860   -0.5273   55.9250 C   0  0  0  0  0  0  0  0  0  0  0  0
   11.7435   -0.2177   56.8721 O   0  0  0  0  0  0  0  0  0  0  0  0
   12.8697   -2.3315   54.1591 C   0  0  0  0  0  0  0  0  0  0  0  0
   11.8919   -1.3355   54.7629 C   0  0  0  0  0  0  0  0  0  0  0  0
   16.4494   -1.1290   59.1373 C   0  0  0  0  0  0  0  0  0  0  0  0
   15.7239   -0.0008   59.8677 C   0  0  0  0  0  0  0  0  0  0  0  0
   14.7495   -0.4863   60.9389 C   0  0  0  0  0  0  0  0  0  0  0  0
   13.0504    0.7286   59.7377 C   0  0  0  0  0  0  0  0  0  0  0  0
   12.5444   -0.2675   61.8855 C   0  0  0  0  0  0  0  0  0  0  0  0
   11.8512    1.6646   59.8500 C   0  0  0  0  0  0  0  0  0  0  0  0
   11.3304    0.6394   62.0595 C   0  0  0  0  0  0  0  0  0  0  0  0
   13.5759    0.3774   61.0631 N   0  0  0  0  0  0  0  0  0  0  0  0
   10.7805    1.0547   60.7184 N   0  0  0  0  0  0  0  0  0  0  0  0
    9.9782   -0.0170   60.0321 C   0  0  0  0  0  0  0  0  0  0  0  0
    9.1515    0.6080   58.9257 C   0  0  0  0  0  0  0  0  0  0  0  0
    8.7569   -0.3968   58.0009 O   0  0  0  0  0  0  0  0  0  0  0  0
  1  2  2  0
  1  4  1  0
  2  5  1  0
  3  6  1  0
  3  8  2  0
  4  9  2  0
  5 11  2  0
  6 12  2  0
  7  8  1  0
  7 10  2  0
  8 15  1  0
  9 11  1  0
  9 13  1  0
 10 12  1  0
 10 13  1  0
 11 14  1  0
 12 14  1  0
 15 18  1  0
 15 16  2  0
 22 24  1  0
 22 26  1  0
 23 25  1  0
 23 26  1  0
 24 27  1  0
 25 27  1  0
 17 18  1  0
 20 19  1  0
 20 21  1  0
 19 13  1  0
 21 26  1  0
 28 29  1  0
 28 27  1  0
 29 30  1  0
M  CHG  1  27   1
M  END
>  <minimizedAffinity>  (39) 
-8.65487

>  <CNNscore>  (39) 
0.7000519037

>  <CNNaffinity>  (39) 
7.3598656654

>  <CNN_VS>  (39) 
5.1522879601

>  <CNNaffinity_variance>  (39) 
0.1571053416

>  <salt_bridge_distance>  (39) 
(2.8908245156010417, 2.8908245156010417)

$$$$

     RDKit          3D

 30 33  0  0  0  0  0  0  0  0999 V2000
   19.9971   -1.5332   58.5199 C   0  0  0  0  0  0  0  0  0  0  0  0
   20.5305   -1.0080   57.3528 C   0  0  0  0  0  0  0  0  0  0  0  0
   13.3925    0.4174   55.3857 C   0  0  0  0  0  0  0  0  0  0  0  0
   18.6456   -1.3403   58.8189 C   0  0  0  0  0  0  0  0  0  0  0  0
   19.7098   -0.2966   56.4839 C   0  0  0  0  0  0  0  0  0  0  0  0
   14.7267    0.6984   55.1106 C   0  0  0  0  0  0  0  0  0  0  0  0
   14.0430   -0.4218   57.5503 C   0  0  0  0  0  0  0  0  0  0  0  0
   13.0507   -0.1463   56.6055 C   0  0  0  0  0  0  0  0  0  0  0  0
   17.7872   -0.6131   57.9654 C   0  0  0  0  0  0  0  0  0  0  0  0
   15.4051   -0.1380   57.3088 C   0  0  0  0  0  0  0  0  0  0  0  0
   18.3481   -0.1040   56.7773 C   0  0  0  0  0  0  0  0  0  0  0  0
   15.7298    0.4183   56.0556 C   0  0  0  0  0  0  0  0  0  0  0  0
   16.4131   -0.4286   58.2624 N   0  0  0  0  0  0  0  0  0  0  0  0
   17.3999    0.8424   55.6026 S   0  0  0  0  0  0  0  0  0  0  0  0
   11.6601   -0.4573   56.8974 C   0  0  0  0  0  0  0  0  0  0  0  0
   11.1793   -1.5950   56.7610 O   0  0  0  0  0  0  0  0  0  0  0  0
   11.4949    1.7854   58.1072 C   0  0  0  0  0  0  0  0  0  0  0  0
   10.7448    0.6692   57.3973 C   0  0  0  0  0  0  0  0  0  0  0  0
   15.9907   -0.6226   59.6555 C   0  0  0  0  0  0  0  0  0  0  0  0
   14.6631    0.0651   59.9668 C   0  0  0  0  0  0  0  0  0  0  0  0
   13.9024   -0.5620   61.1332 C   0  0  0  0  0  0  0  0  0  0  0  0
   11.5562   -0.9506   60.7461 C   0  0  0  0  0  0  0  0  0  0  0  0
   12.2773    0.3006   62.6892 C   0  0  0  0  0  0  0  0  0  0  0  0
   10.1474   -0.3761   60.8556 C   0  0  0  0  0  0  0  0  0  0  0  0
   10.8892    0.9108   62.8549 C   0  0  0  0  0  0  0  0  0  0  0  0
   12.5539   -0.0161   61.2823 N   0  0  0  0  0  0  0  0  0  0  0  0
    9.8351   -0.0026   62.2823 N   0  0  0  0  0  0  0  0  0  0  0  0
    9.5075   -1.1789   63.1610 C   0  0  0  0  0  0  0  0  0  0  0  0
    8.5905   -2.1243   62.4103 C   0  0  0  0  0  0  0  0  0  0  0  0
    8.8800   -3.4649   62.7838 O   0  0  0  0  0  0  0  0  0  0  0  0
  1  2  2  0
  1  4  1  0
  2  5  1  0
  3  6  1  0
  3  8  2  0
  4  9  2  0
  5 11  2  0
  6 12  2  0
  7  8  1  0
  7 10  2  0
  8 15  1  0
  9 11  1  0
  9 13  1  0
 10 12  1  0
 10 13  1  0
 11 14  1  0
 12 14  1  0
 15 18  1  0
 15 16  2  0
 22 24  1  0
 22 26  1  0
 23 25  1  0
 23 26  1  0
 24 27  1  0
 25 27  1  0
 17 18  1  0
 20 19  1  0
 20 21  1  0
 19 13  1  0
 21 26  1  0
 28 29  1  0
 28 27  1  0
 29 30  1  0
M  CHG  1  27   1
M  END
>  <minimizedAffinity>  (40) 
-9.11972

>  <CNNscore>  (40) 
0.6224198937

>  <CNNaffinity>  (40) 
7.1437211037

>  <CNN_VS>  (40) 
4.4463939667

>  <CNNaffinity_variance>  (40) 
0.2533171177

>  <salt_bridge_distance>  (40) 
(3.484818863298349, 3.484818863298349)

$$$$

     RDKit          3D

 30 33  0  0  0  0  0  0  0  0999 V2000
    8.2940    0.8411   65.8460 C   0  0  0  0  0  0  0  0  0  0  0  0
    7.7399   -0.3032   66.3990 C   0  0  0  0  0  0  0  0  0  0  0  0
    8.7160   -3.3986   59.5933 C   0  0  0  0  0  0  0  0  0  0  0  0
    8.8943    0.7874   64.5851 C   0  0  0  0  0  0  0  0  0  0  0  0
    7.7814   -1.4974   65.6872 C   0  0  0  0  0  0  0  0  0  0  0  0
    8.4628   -3.6583   60.9361 C   0  0  0  0  0  0  0  0  0  0  0  0
    9.5231   -1.2082   60.1966 C   0  0  0  0  0  0  0  0  0  0  0  0
    9.2437   -2.1711   59.2228 C   0  0  0  0  0  0  0  0  0  0  0  0
    8.9647   -0.4106   63.8407 C   0  0  0  0  0  0  0  0  0  0  0  0
    9.2899   -1.4433   61.5693 C   0  0  0  0  0  0  0  0  0  0  0  0
    8.3796   -1.5560   64.4159 C   0  0  0  0  0  0  0  0  0  0  0  0
    8.7372   -2.6912   61.9194 C   0  0  0  0  0  0  0  0  0  0  0  0
    9.5621   -0.4622   62.5559 N   0  0  0  0  0  0  0  0  0  0  0  0
    8.3942   -3.1440   63.6081 S   0  0  0  0  0  0  0  0  0  0  0  0
    9.4987   -1.8841   57.8199 C   0  0  0  0  0  0  0  0  0  0  0  0
    8.7406   -2.2517   56.9065 O   0  0  0  0  0  0  0  0  0  0  0  0
   10.8922   -0.8299   55.9576 C   0  0  0  0  0  0  0  0  0  0  0  0
   10.7599   -1.0907   57.4499 C   0  0  0  0  0  0  0  0  0  0  0  0
   10.4813    0.6245   62.1937 C   0  0  0  0  0  0  0  0  0  0  0  0
   11.9204    0.3414   62.6196 C   0  0  0  0  0  0  0  0  0  0  0  0
   12.7000   -0.5168   61.6256 C   0  0  0  0  0  0  0  0  0  0  0  0
   14.9781   -0.4746   60.8419 C   0  0  0  0  0  0  0  0  0  0  0  0
   13.2224    0.5578   59.5330 C   0  0  0  0  0  0  0  0  0  0  0  0
   16.0459    0.3328   60.1107 C   0  0  0  0  0  0  0  0  0  0  0  0
   14.2397    1.3946   58.7639 C   0  0  0  0  0  0  0  0  0  0  0  0
   13.7019    0.2504   60.8865 N   0  0  0  0  0  0  0  0  0  0  0  0
   15.5782    0.7015   58.7259 N   0  0  0  0  0  0  0  0  0  0  0  0
   15.6484   -0.4314   57.7387 C   0  0  0  0  0  0  0  0  0  0  0  0
   15.1559    0.0502   56.3883 C   0  0  0  0  0  0  0  0  0  0  0  0
   15.0971   -1.0456   55.4847 O   0  0  0  0  0  0  0  0  0  0  0  0
  1  2  2  0
  1  4  1  0
  2  5  1  0
  3  6  1  0
  3  8  2  0
  4  9  2  0
  5 11  2  0
  6 12  2  0
  7  8  1  0
  7 10  2  0
  8 15  1  0
  9 11  1  0
  9 13  1  0
 10 12  1  0
 10 13  1  0
 11 14  1  0
 12 14  1  0
 15 18  1  0
 15 16  2  0
 22 24  1  0
 22 26  1  0
 23 25  1  0
 23 26  1  0
 24 27  1  0
 25 27  1  0
 17 18  1  0
 20 19  1  0
 20 21  1  0
 19 13  1  0
 21 26  1  0
 28 29  1  0
 28 27  1  0
 29 30  1  0
M  CHG  1  27   1
M  END
>  <minimizedAffinity>  (41) 
-8.68799

>  <CNNscore>  (41) 
0.4674754143

>  <CNNaffinity>  (41) 
7.0688347816

>  <CNN_VS>  (41) 
3.3045065403

>  <CNNaffinity_variance>  (41) 
0.0694173500

>  <salt_bridge_distance>  (41) 
(3.0530513294080075, 3.0530513294080075)

$$$$

     RDKit          3D

 26 28  0  0  0  0  0  0  0  0999 V2000
   10.9453   -0.9392   60.6135 C   0  0  0  0  0  0  0  0  0  0  0  0
   10.8222   -0.3113   63.0499 C   0  0  0  0  0  0  0  0  0  0  0  0
   11.9743    0.1650   60.3867 C   0  0  0  0  0  0  0  0  0  0  0  0
   11.8670    0.7764   62.8127 C   0  0  0  0  0  0  0  0  0  0  0  0
    9.9904   -0.6326   61.7890 C   0  0  0  0  0  0  0  0  0  0  0  0
   12.7565    0.4322   61.6471 N   0  0  0  0  0  0  0  0  0  0  0  0
    9.2654    0.5573   61.4328 O   0  0  0  0  0  0  0  0  0  0  0  0
    8.4403   -1.8497   63.3818 C   0  0  0  0  0  0  0  0  0  0  0  0
    8.5536   -2.5977   61.0873 C   0  0  0  0  0  0  0  0  0  0  0  0
    7.5059   -2.8468   63.6608 C   0  0  0  0  0  0  0  0  0  0  0  0
    7.6190   -3.5949   61.3662 C   0  0  0  0  0  0  0  0  0  0  0  0
    8.9642   -1.7250   62.0950 C   0  0  0  0  0  0  0  0  0  0  0  0
    7.0952   -3.7194   62.6530 C   0  0  0  0  0  0  0  0  0  0  0  0
    5.9425   -4.9496   62.9974 Cl  0  0  0  0  0  0  0  0  0  0  0  0
   13.7840   -0.6216   61.9611 C   0  0  0  0  0  0  0  0  0  0  0  0
   14.6094   -0.9000   60.7140 C   0  0  0  0  0  0  0  0  0  0  0  0
   15.6286    0.2140   60.4697 C   0  0  0  0  0  0  0  0  0  0  0  0
   15.8936    0.4363   58.9883 C   0  0  0  0  0  0  0  0  0  0  0  0
   15.0869    1.0093   58.2597 O   0  0  0  0  0  0  0  0  0  0  0  0
   17.5689    0.3517   57.1331 C   0  0  0  0  0  0  0  0  0  0  0  0
   17.9839   -0.9292   59.1391 C   0  0  0  0  0  0  0  0  0  0  0  0
   18.7679   -0.1100   56.5902 C   0  0  0  0  0  0  0  0  0  0  0  0
   19.1830   -1.3910   58.5962 C   0  0  0  0  0  0  0  0  0  0  0  0
   17.1769   -0.0579   58.4076 C   0  0  0  0  0  0  0  0  0  0  0  0
   19.5750   -0.9814   57.3217 C   0  0  0  0  0  0  0  0  0  0  0  0
   20.7264   -1.4248   56.8004 F   0  0  0  0  0  0  0  0  0  0  0  0
 20 22  2  0
 20 24  1  0
 21 23  1  0
 21 24  2  0
  8 10  2  0
  8 12  1  0
  9 11  1  0
  9 12  2  0
 22 25  1  0
 23 25  2  0
 10 13  1  0
 11 13  2  0
 24 18  1  0
 12  5  1  0
 25 26  1  0
 13 14  1  0
 18 17  1  0
 18 19  2  0
  1  3  1  0
  1  5  1  0
  2  4  1  0
  2  5  1  0
  3  6  1  0
  4  6  1  0
  5  7  1  0
 17 16  1  0
 16 15  1  0
 15  6  1  0
M  CHG  1   6   1
M  END
>  <minimizedAffinity>  (42) 
-9.14121

>  <CNNscore>  (42) 
0.7632197142

>  <CNNaffinity>  (42) 
6.4369812012

>  <CNN_VS>  (42) 
4.9128308296

>  <CNNaffinity_variance>  (42) 
0.0271946732

>  <salt_bridge_distance>  (42) 
(2.9480005257801425, 2.9480005257801425)

$$$$

     RDKit          3D

 26 28  0  0  0  0  0  0  0  0999 V2000
   15.2954   -0.7615   60.1412 C   0  0  0  0  0  0  0  0  0  0  0  0
   15.0654    1.1041   58.4642 C   0  0  0  0  0  0  0  0  0  0  0  0
   14.0627   -0.2441   60.8775 C   0  0  0  0  0  0  0  0  0  0  0  0
   13.8220    1.5987   59.1992 C   0  0  0  0  0  0  0  0  0  0  0  0
   16.0518    0.3548   59.3864 C   0  0  0  0  0  0  0  0  0  0  0  0
   13.1369    0.4734   59.9288 N   0  0  0  0  0  0  0  0  0  0  0  0
   16.5106    1.2876   60.3801 O   0  0  0  0  0  0  0  0  0  0  0  0
   17.4692    0.3428   57.2860 C   0  0  0  0  0  0  0  0  0  0  0  0
   18.1881   -0.9896   59.1689 C   0  0  0  0  0  0  0  0  0  0  0  0
   18.5815   -0.0829   56.5601 C   0  0  0  0  0  0  0  0  0  0  0  0
   19.3005   -1.4153   58.4429 C   0  0  0  0  0  0  0  0  0  0  0  0
   17.2725   -0.1105   58.5905 C   0  0  0  0  0  0  0  0  0  0  0  0
   19.4972   -0.9619   57.1385 C   0  0  0  0  0  0  0  0  0  0  0  0
   20.8692   -1.4871   56.2428 Cl  0  0  0  0  0  0  0  0  0  0  0  0
   12.3569   -0.4454   59.0274 C   0  0  0  0  0  0  0  0  0  0  0  0
   11.0405    0.2201   58.6562 C   0  0  0  0  0  0  0  0  0  0  0  0
   11.0149    0.5988   57.1744 C   0  0  0  0  0  0  0  0  0  0  0  0
   11.3816   -0.5722   56.2752 C   0  0  0  0  0  0  0  0  0  0  0  0
   10.5967   -1.4893   56.0453 O   0  0  0  0  0  0  0  0  0  0  0  0
   13.3936    0.5929   55.3532 C   0  0  0  0  0  0  0  0  0  0  0  0
   13.3516   -1.8226   55.3740 C   0  0  0  0  0  0  0  0  0  0  0  0
   14.6615    0.5659   54.7726 C   0  0  0  0  0  0  0  0  0  0  0  0
   14.6196   -1.8497   54.7934 C   0  0  0  0  0  0  0  0  0  0  0  0
   12.7386   -0.6014   55.6540 C   0  0  0  0  0  0  0  0  0  0  0  0
   15.2746   -0.6554   54.4926 C   0  0  0  0  0  0  0  0  0  0  0  0
   16.4922   -0.6814   53.9350 F   0  0  0  0  0  0  0  0  0  0  0  0
 20 22  2  0
 20 24  1  0
 21 23  1  0
 21 24  2  0
  8 10  2  0
  8 12  1  0
  9 11  1  0
  9 12  2  0
 22 25  1  0
 23 25  2  0
 10 13  1  0
 11 13  2  0
 24 18  1  0
 12  5  1  0
 25 26  1  0
 13 14  1  0
 18 17  1  0
 18 19  2  0
  1  3  1  0
  1  5  1  0
  2  4  1  0
  2  5  1  0
  3  6  1  0
  4  6  1  0
  5  7  1  0
 17 16  1  0
 16 15  1  0
 15  6  1  0
M  CHG  1   6   1
M  END
>  <minimizedAffinity>  (43) 
-9.12390

>  <CNNscore>  (43) 
0.6873790026

>  <CNNaffinity>  (43) 
7.0902290344

>  <CNN_VS>  (43) 
4.8736743927

>  <CNNaffinity_variance>  (43) 
0.0207269825

>  <salt_bridge_distance>  (43) 
(3.3992115865300274, 3.3992115865300274)

$$$$

     RDKit          3D

 26 28  0  0  0  0  0  0  0  0999 V2000
   11.4976   -0.0464   59.0668 C   0  0  0  0  0  0  0  0  0  0  0  0
   11.0081   -0.5664   61.4824 C   0  0  0  0  0  0  0  0  0  0  0  0
   12.5719    0.9457   59.5039 C   0  0  0  0  0  0  0  0  0  0  0  0
   12.0993    0.4142   61.9049 C   0  0  0  0  0  0  0  0  0  0  0  0
   10.3772   -0.2140   60.1176 C   0  0  0  0  0  0  0  0  0  0  0  0
   13.1528    0.5498   60.8371 N   0  0  0  0  0  0  0  0  0  0  0  0
    9.7415    1.0691   60.2519 O   0  0  0  0  0  0  0  0  0  0  0  0
    8.3350   -0.9171   58.7924 C   0  0  0  0  0  0  0  0  0  0  0  0
    9.2629   -2.4727   60.3913 C   0  0  0  0  0  0  0  0  0  0  0  0
    7.3462   -1.8444   58.4641 C   0  0  0  0  0  0  0  0  0  0  0  0
    8.2740   -3.4001   60.0629 C   0  0  0  0  0  0  0  0  0  0  0  0
    9.2935   -1.2313   59.7560 C   0  0  0  0  0  0  0  0  0  0  0  0
    7.3157   -3.0858   59.0993 C   0  0  0  0  0  0  0  0  0  0  0  0
    6.0956   -4.2295   58.6943 Cl  0  0  0  0  0  0  0  0  0  0  0  0
   14.0967   -0.6203   60.7669 C   0  0  0  0  0  0  0  0  0  0  0  0
   15.4827   -0.1205   60.3885 C   0  0  0  0  0  0  0  0  0  0  0  0
   16.0404   -0.8981   59.1953 C   0  0  0  0  0  0  0  0  0  0  0  0
   16.8668   -0.0175   58.2704 C   0  0  0  0  0  0  0  0  0  0  0  0
   16.4379    1.0443   57.8247 O   0  0  0  0  0  0  0  0  0  0  0  0
   18.9623   -1.2943   58.7542 C   0  0  0  0  0  0  0  0  0  0  0  0
   18.8075   -0.0444   56.6925 C   0  0  0  0  0  0  0  0  0  0  0  0
   20.2476   -1.7094   58.4060 C   0  0  0  0  0  0  0  0  0  0  0  0
   20.0928   -0.4595   56.3442 C   0  0  0  0  0  0  0  0  0  0  0  0
   18.2422   -0.4617   57.8974 C   0  0  0  0  0  0  0  0  0  0  0  0
   20.8129   -1.2921   57.2010 C   0  0  0  0  0  0  0  0  0  0  0  0
   22.0472   -1.6907   56.8666 F   0  0  0  0  0  0  0  0  0  0  0  0
 20 22  2  0
 20 24  1  0
 21 23  1  0
 21 24  2  0
  8 10  2  0
  8 12  1  0
  9 11  1  0
  9 12  2  0
 22 25  1  0
 23 25  2  0
 10 13  1  0
 11 13  2  0
 24 18  1  0
 12  5  1  0
 25 26  1  0
 13 14  1  0
 18 17  1  0
 18 19  2  0
  1  3  1  0
  1  5  1  0
  2  4  1  0
  2  5  1  0
  3  6  1  0
  4  6  1  0
  5  7  1  0
 17 16  1  0
 16 15  1  0
 15  6  1  0
M  CHG  1   6   1
M  END
>  <minimizedAffinity>  (44) 
-9.82532

>  <CNNscore>  (44) 
0.6119281054

>  <CNNaffinity>  (44) 
6.2206034660

>  <CNN_VS>  (44) 
3.8065621853

>  <CNNaffinity_variance>  (44) 
0.0309037007

>  <salt_bridge_distance>  (44) 
(2.8920919573900137, 2.8920919573900137)

$$$$

     RDKit          3D

 26 28  0  0  0  0  0  0  0  0999 V2000
   11.3831   -0.4708   58.2406 C   0  0  0  0  0  0  0  0  0  0  0  0
   10.6236    0.3124   60.5111 C   0  0  0  0  0  0  0  0  0  0  0  0
   12.4796    0.5909   58.2474 C   0  0  0  0  0  0  0  0  0  0  0  0
   11.7374    1.3566   60.5132 C   0  0  0  0  0  0  0  0  0  0  0  0
   10.1563   -0.0670   59.0889 C   0  0  0  0  0  0  0  0  0  0  0  0
   12.8971    0.9175   59.6584 N   0  0  0  0  0  0  0  0  0  0  0  0
    9.6064    1.1158   58.4831 O   0  0  0  0  0  0  0  0  0  0  0  0
    9.0320   -2.0552   60.1859 C   0  0  0  0  0  0  0  0  0  0  0  0
    8.0348   -1.1225   58.1927 C   0  0  0  0  0  0  0  0  0  0  0  0
    8.0160   -3.0089   60.2479 C   0  0  0  0  0  0  0  0  0  0  0  0
    7.0187   -2.0762   58.2547 C   0  0  0  0  0  0  0  0  0  0  0  0
    9.0413   -1.1120   59.1583 C   0  0  0  0  0  0  0  0  0  0  0  0
    7.0094   -3.0194   59.2824 C   0  0  0  0  0  0  0  0  0  0  0  0
    5.7563   -4.1960   59.3590 Cl  0  0  0  0  0  0  0  0  0  0  0  0
   13.7549   -0.1397   60.2998 C   0  0  0  0  0  0  0  0  0  0  0  0
   15.2099    0.3012   60.2497 C   0  0  0  0  0  0  0  0  0  0  0  0
   16.0542   -0.6818   59.4370 C   0  0  0  0  0  0  0  0  0  0  0  0
   16.7486   -0.0092   58.2625 C   0  0  0  0  0  0  0  0  0  0  0  0
   16.2123    0.8848   57.6120 O   0  0  0  0  0  0  0  0  0  0  0  0
   18.8590   -1.2510   58.7721 C   0  0  0  0  0  0  0  0  0  0  0  0
   18.6792   -0.0681   56.6732 C   0  0  0  0  0  0  0  0  0  0  0  0
   20.1458   -1.6652   58.4285 C   0  0  0  0  0  0  0  0  0  0  0  0
   19.9661   -0.4823   56.3295 C   0  0  0  0  0  0  0  0  0  0  0  0
   18.1257   -0.4524   57.8944 C   0  0  0  0  0  0  0  0  0  0  0  0
   20.6994   -1.2808   57.2072 C   0  0  0  0  0  0  0  0  0  0  0  0
   21.9352   -1.6785   56.8772 F   0  0  0  0  0  0  0  0  0  0  0  0
 20 22  2  0
 20 24  1  0
 21 23  1  0
 21 24  2  0
  8 10  2  0
  8 12  1  0
  9 11  1  0
  9 12  2  0
 22 25  1  0
 23 25  2  0
 10 13  1  0
 11 13  2  0
 24 18  1  0
 12  5  1  0
 25 26  1  0
 13 14  1  0
 18 17  1  0
 18 19  2  0
  1  3  1  0
  1  5  1  0
  2  4  1  0
  2  5  1  0
  3  6  1  0
  4  6  1  0
  5  7  1  0
 17 16  1  0
 16 15  1  0
 15  6  1  0
M  CHG  1   6   1
M  END
>  <minimizedAffinity>  (45) 
-9.66844

>  <CNNscore>  (45) 
0.6047248840

>  <CNNaffinity>  (45) 
6.1785879135

>  <CNN_VS>  (45) 
3.7363457680

>  <CNNaffinity_variance>  (45) 
0.0330877826

>  <salt_bridge_distance>  (45) 
(3.315102656027411, 3.315102656027411)

$$$$

     RDKit          3D

 26 28  0  0  0  0  0  0  0  0999 V2000
   10.9936   -0.9910   60.6002 C   0  0  0  0  0  0  0  0  0  0  0  0
   10.8882   -0.2052   62.9912 C   0  0  0  0  0  0  0  0  0  0  0  0
   11.9970    0.1156   60.2867 C   0  0  0  0  0  0  0  0  0  0  0  0
   11.9076    0.8845   62.6681 C   0  0  0  0  0  0  0  0  0  0  0  0
   10.0474   -0.6257   61.7660 C   0  0  0  0  0  0  0  0  0  0  0  0
   12.7893    0.4810   61.5157 N   0  0  0  0  0  0  0  0  0  0  0  0
    9.2940    0.5236   61.3418 O   0  0  0  0  0  0  0  0  0  0  0  0
    8.5856   -1.7986   63.4713 C   0  0  0  0  0  0  0  0  0  0  0  0
    8.5992   -2.6262   61.2015 C   0  0  0  0  0  0  0  0  0  0  0  0
    7.6752   -2.7931   63.8285 C   0  0  0  0  0  0  0  0  0  0  0  0
    7.6887   -3.6208   61.5586 C   0  0  0  0  0  0  0  0  0  0  0  0
    9.0476   -1.7151   62.1578 C   0  0  0  0  0  0  0  0  0  0  0  0
    7.2267   -3.7041   62.8721 C   0  0  0  0  0  0  0  0  0  0  0  0
    6.1037   -4.9310   63.3130 Cl  0  0  0  0  0  0  0  0  0  0  0  0
   13.8419   -0.5294   61.8845 C   0  0  0  0  0  0  0  0  0  0  0  0
   14.6581   -0.8727   60.6476 C   0  0  0  0  0  0  0  0  0  0  0  0
   15.5168    0.3147   60.2090 C   0  0  0  0  0  0  0  0  0  0  0  0
   16.6473   -0.1046   59.2814 C   0  0  0  0  0  0  0  0  0  0  0  0
   17.7275   -0.5053   59.7086 O   0  0  0  0  0  0  0  0  0  0  0  0
   15.3501   -0.6890   57.2243 C   0  0  0  0  0  0  0  0  0  0  0  0
   17.3087    0.7092   57.0105 C   0  0  0  0  0  0  0  0  0  0  0  0
   15.1476   -0.6161   55.8462 C   0  0  0  0  0  0  0  0  0  0  0  0
   17.1063    0.7822   55.6323 C   0  0  0  0  0  0  0  0  0  0  0  0
   16.4307   -0.0263   57.8065 C   0  0  0  0  0  0  0  0  0  0  0  0
   16.0256    0.1195   55.0502 C   0  0  0  0  0  0  0  0  0  0  0  0
   15.8312    0.1895   53.7268 F   0  0  0  0  0  0  0  0  0  0  0  0
 20 22  2  0
 20 24  1  0
 21 23  1  0
 21 24  2  0
  8 10  2  0
  8 12  1  0
  9 11  1  0
  9 12  2  0
 22 25  1  0
 23 25  2  0
 10 13  1  0
 11 13  2  0
 24 18  1  0
 12  5  1  0
 25 26  1  0
 13 14  1  0
 18 17  1  0
 18 19  2  0
  1  3  1  0
  1  5  1  0
  2  4  1  0
  2  5  1  0
  3  6  1  0
  4  6  1  0
  5  7  1  0
 17 16  1  0
 16 15  1  0
 15  6  1  0
M  CHG  1   6   1
M  END
>  <minimizedAffinity>  (46) 
-9.06609

>  <CNNscore>  (46) 
0.3743009865

>  <CNNaffinity>  (46) 
5.9526834488

>  <CNN_VS>  (46) 
2.2280952930

>  <CNNaffinity_variance>  (46) 
0.0881820843

>  <salt_bridge_distance>  (46) 
(2.90507059810945, 2.90507059810945)

$$$$

     RDKit          3D

 20 23  0  0  0  0  0  0  0  0999 V2000
   12.0347   -0.8491   55.6960 C   0  0  0  0  0  0  0  0  0  0  0  0
   13.0310   -0.3444   56.5204 C   0  0  0  0  0  0  0  0  0  0  0  0
    8.5040   -3.8537   60.1228 C   0  0  0  0  0  0  0  0  0  0  0  0
   10.7315   -0.9572   56.1751 C   0  0  0  0  0  0  0  0  0  0  0  0
   12.7182    0.0587   57.8185 C   0  0  0  0  0  0  0  0  0  0  0  0
    8.4975   -3.0012   59.0302 C   0  0  0  0  0  0  0  0  0  0  0  0
    9.0146   -3.3664   61.3078 C   0  0  0  0  0  0  0  0  0  0  0  0
   10.4055   -0.5572   57.4842 C   0  0  0  0  0  0  0  0  0  0  0  0
   11.4041   -0.0331   58.3265 C   0  0  0  0  0  0  0  0  0  0  0  0
    8.9993   -1.7003   59.1527 C   0  0  0  0  0  0  0  0  0  0  0  0
    9.5243   -1.2831   60.3855 C   0  0  0  0  0  0  0  0  0  0  0  0
    8.9999   -0.7642   57.9747 C   0  0  0  0  0  0  0  0  0  0  0  0
    9.8364    0.6130   61.8505 C   0  0  0  0  0  0  0  0  0  0  0  0
    9.7988    2.1309   61.7694 C   0  0  0  0  0  0  0  0  0  0  0  0
   11.1223    2.0400   59.6590 C   0  0  0  0  0  0  0  0  0  0  0  0
   11.1697    0.5026   59.7399 C   0  0  1  0  0  0  0  0  0  0  0  0
   11.0924    4.1248   61.0284 C   0  0  0  0  0  0  0  0  0  0  0  0
    9.5097   -2.1178   61.4615 N   0  0  0  0  0  0  0  0  0  0  0  0
    9.9960    0.0322   60.5118 N   0  0  0  0  0  0  0  0  0  0  0  0
   11.0216    2.6230   61.0465 N   0  0  1  0  0  0  0  0  0  0  0  0
  1  2  2  0
  1  4  1  0
  2  5  1  0
  3  6  2  0
  3  7  1  0
  4  8  2  0
  5  9  2  0
  6 10  1  0
  7 18  2  0
  8  9  1  0
  8 12  1  0
  9 16  1  0
 10 11  2  0
 10 12  1  0
 11 18  1  0
 11 19  1  0
 13 14  1  0
 13 19  1  0
 14 20  1  0
 16 15  1  6
 15 20  1  0
 16 19  1  0
 20 17  1  6
M  CHG  1  20   1
M  END
>  <minimizedAffinity>  (47) 
-8.16837

>  <CNNscore>  (47) 
0.4103045464

>  <CNNaffinity>  (47) 
5.5492067337

>  <CNN_VS>  (47) 
2.2768647671

>  <CNNaffinity_variance>  (47) 
0.0351510830

>  <salt_bridge_distance>  (47) 
(3.0861281583887603, 3.0861281583887603)

$$$$

     RDKit          3D

 34 38  0  0  0  0  0  0  0  0999 V2000
   14.4021   -0.5596   60.6944 C   0  0  0  0  0  0  0  0  0  0  0  0
   11.7369   -0.1878   59.0330 C   0  0  0  0  0  0  0  0  0  0  0  0
   11.3394   -0.7326   61.4653 C   0  0  0  0  0  0  0  0  0  0  0  0
   12.7453    0.8758   59.4440 C   0  0  0  0  0  0  0  0  0  0  0  0
   12.3507    0.3341   61.8614 C   0  0  0  0  0  0  0  0  0  0  0  0
   10.6839   -0.4225   60.1179 C   0  0  0  0  0  0  0  0  0  0  0  0
   13.3750    0.5375   60.7726 N   0  0  0  0  0  0  0  0  0  0  0  0
    6.9930   -3.7608   61.7569 C   0  0  0  0  0  0  0  0  0  0  0  0
    7.6893   -2.8027   62.5235 C   0  0  0  0  0  0  0  0  0  0  0  0
    7.2474   -3.9131   60.3913 C   0  0  0  0  0  0  0  0  0  0  0  0
    8.6555   -1.9753   61.9414 C   0  0  0  0  0  0  0  0  0  0  0  0
    8.2025   -3.0875   59.8409 C   0  0  0  0  0  0  0  0  0  0  0  0
    8.8936   -2.1392   60.5927 C   0  0  0  0  0  0  0  0  0  0  0  0
    9.6510   -2.0140   58.4244 C   0  0  0  0  0  0  0  0  0  0  0  0
    8.6515   -3.0236   58.5215 N   0  0  0  0  0  0  0  0  0  0  0  0
    9.7798   -1.4801   59.7333 N   0  0  0  0  0  0  0  0  0  0  0  0
   10.2599   -1.6895   57.4144 O   0  0  0  0  0  0  0  0  0  0  0  0
   15.7023    0.0129   60.1478 C   0  0  0  0  0  0  0  0  0  0  0  0
   16.3140   -0.9235   59.0970 C   0  0  0  0  0  0  0  0  0  0  0  0
   16.9713   -0.1557   57.9212 C   0  0  0  0  0  0  0  0  0  0  0  0
   19.0602   -0.1787   56.4931 C   0  0  0  0  0  0  0  0  0  0  0  0
   19.0899   -1.3603   58.6002 C   0  0  0  0  0  0  0  0  0  0  0  0
   20.3799   -0.5644   56.2582 C   0  0  0  0  0  0  0  0  0  0  0  0
   20.4096   -1.7460   58.3654 C   0  0  0  0  0  0  0  0  0  0  0  0
   18.4152   -0.5767   57.6641 C   0  0  0  0  0  0  0  0  0  0  0  0
   21.0546   -1.3481   57.1944 C   0  0  0  0  0  0  0  0  0  0  0  0
   22.3211   -1.7208   56.9677 F   0  0  0  0  0  0  0  0  0  0  0  0
   16.4781    0.6677   55.5819 C   0  0  0  0  0  0  0  0  0  0  0  0
   15.0755   -1.0631   56.5168 C   0  0  0  0  0  0  0  0  0  0  0  0
   15.7274    0.6413   54.4066 C   0  0  0  0  0  0  0  0  0  0  0  0
   14.3246   -1.0894   55.3415 C   0  0  0  0  0  0  0  0  0  0  0  0
   16.1522   -0.1846   56.6370 C   0  0  0  0  0  0  0  0  0  0  0  0
   14.6506   -0.2372   54.2864 C   0  0  0  0  0  0  0  0  0  0  0  0
   13.9279   -0.2607   53.1588 F   0  0  0  0  0  0  0  0  0  0  0  0
  8  9  2  0
  8 10  1  0
  9 11  1  0
 21 23  2  0
 21 25  1  0
 22 24  1  0
 22 25  2  0
 28 30  2  0
 28 32  1  0
 29 31  1  0
 29 32  2  0
 10 12  2  0
 11 13  2  0
 23 26  1  0
 24 26  2  0
 30 33  1  0
 31 33  2  0
 25 20  1  0
 32 20  1  0
 12 13  1  0
 12 15  1  0
 13 16  1  0
 26 27  1  0
 33 34  1  0
 14 15  1  0
 14 16  1  0
 14 17  2  0
  2  4  1  0
  2  6  1  0
  3  5  1  0
  3  6  1  0
  4  7  1  0
  5  7  1  0
  6 16  1  0
 18 19  1  0
 18  1  1  0
 19 20  1  0
  1  7  1  0
M  CHG  1   7   1
M  END
>  <minimizedAffinity>  (48) 
-12.23059

>  <CNNscore>  (48) 
0.8943277001

>  <CNNaffinity>  (48) 
8.0939741135

>  <CNN_VS>  (48) 
7.2386651039

>  <CNNaffinity_variance>  (48) 
0.0513046905

>  <salt_bridge_distance>  (48) 
(2.8752976906748287, 2.8752976906748287)

$$$$

     RDKit          3D

 34 38  0  0  0  0  0  0  0  0999 V2000
   13.5498    0.4031   59.1881 C   0  0  0  0  0  0  0  0  0  0  0  0
   10.4471    0.4516   59.7986 C   0  0  0  0  0  0  0  0  0  0  0  0
   11.7562   -1.0435   61.3547 C   0  0  0  0  0  0  0  0  0  0  0  0
   11.4665    1.5603   60.0187 C   0  0  0  0  0  0  0  0  0  0  0  0
   12.7680    0.0742   61.5650 C   0  0  0  0  0  0  0  0  0  0  0  0
   10.3723   -0.4981   60.9959 C   0  0  0  0  0  0  0  0  0  0  0  0
   12.8188    0.9886   60.3660 N   0  0  0  0  0  0  0  0  0  0  0  0
    6.7706   -3.6931   63.0630 C   0  0  0  0  0  0  0  0  0  0  0  0
    7.5068   -2.6852   63.7208 C   0  0  0  0  0  0  0  0  0  0  0  0
    6.9527   -3.9447   61.7006 C   0  0  0  0  0  0  0  0  0  0  0  0
    8.4416   -1.9062   63.0306 C   0  0  0  0  0  0  0  0  0  0  0  0
    7.8782   -3.1652   61.0427 C   0  0  0  0  0  0  0  0  0  0  0  0
    8.6084   -2.1682   61.6867 C   0  0  0  0  0  0  0  0  0  0  0  0
    9.2510   -2.2032   59.4783 C   0  0  0  0  0  0  0  0  0  0  0  0
    8.2572   -3.1987   59.7005 N   0  0  0  0  0  0  0  0  0  0  0  0
    9.4487   -1.5767   60.7367 N   0  0  0  0  0  0  0  0  0  0  0  0
    9.8061   -1.9551   58.4170 O   0  0  0  0  0  0  0  0  0  0  0  0
   14.8164    1.2090   58.9367 C   0  0  0  0  0  0  0  0  0  0  0  0
   16.0357    0.2862   58.8060 C   0  0  0  0  0  0  0  0  0  0  0  0
   16.7717    0.4551   57.4518 C   0  0  0  0  0  0  0  0  0  0  0  0
   18.9766   -0.0577   56.3208 C   0  0  0  0  0  0  0  0  0  0  0  0
   18.5628   -0.9810   58.5146 C   0  0  0  0  0  0  0  0  0  0  0  0
   20.2298   -0.6696   56.2995 C   0  0  0  0  0  0  0  0  0  0  0  0
   19.8161   -1.5930   58.4934 C   0  0  0  0  0  0  0  0  0  0  0  0
   18.1431   -0.2134   57.4283 C   0  0  0  0  0  0  0  0  0  0  0  0
   20.6496   -1.4373   57.3859 C   0  0  0  0  0  0  0  0  0  0  0  0
   21.8520   -2.0272   57.3645 F   0  0  0  0  0  0  0  0  0  0  0  0
   15.9442    0.8260   55.0914 C   0  0  0  0  0  0  0  0  0  0  0  0
   15.1655   -1.1180   56.2963 C   0  0  0  0  0  0  0  0  0  0  0  0
   15.1794    0.4483   53.9878 C   0  0  0  0  0  0  0  0  0  0  0  0
   14.4006   -1.4956   55.1926 C   0  0  0  0  0  0  0  0  0  0  0  0
   15.9372    0.0427   56.2457 C   0  0  0  0  0  0  0  0  0  0  0  0
   14.4076   -0.7125   54.0383 C   0  0  0  0  0  0  0  0  0  0  0  0
   13.6710   -1.0738   52.9795 F   0  0  0  0  0  0  0  0  0  0  0  0
  8  9  2  0
  8 10  1  0
  9 11  1  0
 21 23  2  0
 21 25  1  0
 22 24  1  0
 22 25  2  0
 28 30  2  0
 28 32  1  0
 29 31  1  0
 29 32  2  0
 10 12  2  0
 11 13  2  0
 23 26  1  0
 24 26  2  0
 30 33  1  0
 31 33  2  0
 25 20  1  0
 32 20  1  0
 12 13  1  0
 12 15  1  0
 13 16  1  0
 26 27  1  0
 33 34  1  0
 14 15  1  0
 14 16  1  0
 14 17  2  0
  2  4  1  0
  2  6  1  0
  3  5  1  0
  3  6  1  0
  4  7  1  0
  5  7  1  0
  6 16  1  0
 18 19  1  0
 18  1  1  0
 19 20  1  0
  1  7  1  0
M  CHG  1   7   1
M  END
>  <minimizedAffinity>  (49) 
-11.48738

>  <CNNscore>  (49) 
0.7764198184

>  <CNNaffinity>  (49) 
7.7338209152

>  <CNN_VS>  (49) 
6.0046916008

>  <CNNaffinity_variance>  (49) 
0.0138823781

>  <salt_bridge_distance>  (49) 
(2.8586744130803003, 2.8586744130803003)

$$$$

     RDKit          3D

 34 38  0  0  0  0  0  0  0  0999 V2000
   12.1176    1.6933   59.4484 C   0  0  0  0  0  0  0  0  0  0  0  0
    9.6004    0.7424   61.1102 C   0  0  0  0  0  0  0  0  0  0  0  0
   11.3219   -1.0707   60.7642 C   0  0  0  0  0  0  0  0  0  0  0  0
   10.7045    1.6982   61.5394 C   0  0  0  0  0  0  0  0  0  0  0  0
   12.4157   -0.1036   61.1951 C   0  0  0  0  0  0  0  0  0  0  0  0
    9.9707   -0.7159   61.3882 C   0  0  0  0  0  0  0  0  0  0  0  0
   12.0203    1.3229   60.9037 N   0  0  0  0  0  0  0  0  0  0  0  0
    6.4447   -4.3514   62.7313 C   0  0  0  0  0  0  0  0  0  0  0  0
    7.3411   -3.6666   63.5787 C   0  0  0  0  0  0  0  0  0  0  0  0
    6.4185   -4.0997   61.3569 C   0  0  0  0  0  0  0  0  0  0  0  0
    8.2312   -2.7145   63.0705 C   0  0  0  0  0  0  0  0  0  0  0  0
    7.3039   -3.1585   60.8803 C   0  0  0  0  0  0  0  0  0  0  0  0
    8.1916   -2.4788   61.7121 C   0  0  0  0  0  0  0  0  0  0  0  0
    8.5215   -1.7317   59.5617 C   0  0  0  0  0  0  0  0  0  0  0  0
    7.4921   -2.7156   59.5708 N   0  0  0  0  0  0  0  0  0  0  0  0
    8.9381   -1.6056   60.9129 N   0  0  0  0  0  0  0  0  0  0  0  0
    8.9442   -1.1316   58.5833 O   0  0  0  0  0  0  0  0  0  0  0  0
   12.6838    0.5138   58.6706 C   0  0  0  0  0  0  0  0  0  0  0  0
   14.1961    0.6709   58.4616 C   0  0  0  0  0  0  0  0  0  0  0  0
   14.8064   -0.4782   57.6184 C   0  0  0  0  0  0  0  0  0  0  0  0
   14.0812   -1.6213   55.4804 C   0  0  0  0  0  0  0  0  0  0  0  0
   14.2925    0.7853   55.4877 C   0  0  0  0  0  0  0  0  0  0  0  0
   13.6930   -1.5832   54.1412 C   0  0  0  0  0  0  0  0  0  0  0  0
   13.9044    0.8235   54.1485 C   0  0  0  0  0  0  0  0  0  0  0  0
   14.3809   -0.4371   56.1536 C   0  0  0  0  0  0  0  0  0  0  0  0
   13.6046   -0.3607   53.4752 C   0  0  0  0  0  0  0  0  0  0  0  0
   13.2344   -0.3242   52.1884 F   0  0  0  0  0  0  0  0  0  0  0  0
   17.1483   -0.0996   56.7433 C   0  0  0  0  0  0  0  0  0  0  0  0
   16.8763   -1.2037   58.8750 C   0  0  0  0  0  0  0  0  0  0  0  0
   18.5336   -0.2091   56.8633 C   0  0  0  0  0  0  0  0  0  0  0  0
   18.2617   -1.3133   58.9950 C   0  0  0  0  0  0  0  0  0  0  0  0
   16.3196   -0.5968   57.7492 C   0  0  0  0  0  0  0  0  0  0  0  0
   19.0904   -0.8159   57.9891 C   0  0  0  0  0  0  0  0  0  0  0  0
   20.4206   -0.9236   58.1032 F   0  0  0  0  0  0  0  0  0  0  0  0
  8  9  2  0
  8 10  1  0
  9 11  1  0
 21 23  2  0
 21 25  1  0
 22 24  1  0
 22 25  2  0
 28 30  2  0
 28 32  1  0
 29 31  1  0
 29 32  2  0
 10 12  2  0
 11 13  2  0
 23 26  1  0
 24 26  2  0
 30 33  1  0
 31 33  2  0
 25 20  1  0
 32 20  1  0
 12 13  1  0
 12 15  1  0
 13 16  1  0
 26 27  1  0
 33 34  1  0
 14 15  1  0
 14 16  1  0
 14 17  2  0
  2  4  1  0
  2  6  1  0
  3  5  1  0
  3  6  1  0
  4  7  1  0
  5  7  1  0
  6 16  1  0
 18 19  1  0
 18  1  1  0
 19 20  1  0
  1  7  1  0
M  CHG  1   7   1
M  END
>  <minimizedAffinity>  (50) 
-10.32883

>  <CNNscore>  (50) 
0.5373776555

>  <CNNaffinity>  (50) 
7.5815496445

>  <CNN_VS>  (50) 
4.0741553307

>  <CNNaffinity_variance>  (50) 
0.0376369543

>  <salt_bridge_distance>  (50) 
(2.815601354950661, 2.815601354950661)

$$$$

     RDKit          3D

 34 38  0  0  0  0  0  0  0  0999 V2000
   13.6057   -0.5110   61.6916 C   0  0  0  0  0  0  0  0  0  0  0  0
   10.6039   -1.2765   61.0550 C   0  0  0  0  0  0  0  0  0  0  0  0
   10.8718    0.0731   63.1710 C   0  0  0  0  0  0  0  0  0  0  0  0
   11.4987   -0.2881   60.3205 C   0  0  0  0  0  0  0  0  0  0  0  0
   11.7654    1.0530   62.4237 C   0  0  0  0  0  0  0  0  0  0  0  0
    9.8815   -0.6220   62.2343 C   0  0  0  0  0  0  0  0  0  0  0  0
   12.4643    0.3751   61.2712 N   0  0  0  0  0  0  0  0  0  0  0  0
    6.2559   -4.3846   61.8460 C   0  0  0  0  0  0  0  0  0  0  0  0
    6.8050   -3.6070   60.8046 C   0  0  0  0  0  0  0  0  0  0  0  0
    6.6628   -4.2042   63.1706 C   0  0  0  0  0  0  0  0  0  0  0  0
    7.7735   -2.6317   61.0648 C   0  0  0  0  0  0  0  0  0  0  0  0
    7.6172   -3.2384   63.4018 C   0  0  0  0  0  0  0  0  0  0  0  0
    8.1633   -2.4672   62.3776 C   0  0  0  0  0  0  0  0  0  0  0  0
    9.1364   -1.8104   64.3557 C   0  0  0  0  0  0  0  0  0  0  0  0
    8.1983   -2.8512   64.6096 N   0  0  0  0  0  0  0  0  0  0  0  0
    9.0921   -1.5930   62.9536 N   0  0  0  0  0  0  0  0  0  0  0  0
    9.8268   -1.2363   65.1862 O   0  0  0  0  0  0  0  0  0  0  0  0
   14.8994    0.0266   61.0964 C   0  0  0  0  0  0  0  0  0  0  0  0
   15.4100   -0.8908   59.9770 C   0  0  0  0  0  0  0  0  0  0  0  0
   15.7712   -0.1141   58.6846 C   0  0  0  0  0  0  0  0  0  0  0  0
   18.0626   -1.1442   58.9879 C   0  0  0  0  0  0  0  0  0  0  0  0
   17.6497    0.1918   57.0178 C   0  0  0  0  0  0  0  0  0  0  0  0
   19.3708   -1.3707   58.5602 C   0  0  0  0  0  0  0  0  0  0  0  0
   18.9579   -0.0347   56.5900 C   0  0  0  0  0  0  0  0  0  0  0  0
   17.2021   -0.3629   58.2167 C   0  0  0  0  0  0  0  0  0  0  0  0
   19.8184   -0.8159   57.3611 C   0  0  0  0  0  0  0  0  0  0  0  0
   21.0754   -1.0312   56.9515 F   0  0  0  0  0  0  0  0  0  0  0  0
   15.0005   -1.3135   56.5963 C   0  0  0  0  0  0  0  0  0  0  0  0
   13.6428    0.4882   57.4611 C   0  0  0  0  0  0  0  0  0  0  0  0
   14.0901   -1.5004   55.5563 C   0  0  0  0  0  0  0  0  0  0  0  0
   12.7324    0.3013   56.4209 C   0  0  0  0  0  0  0  0  0  0  0  0
   14.7768   -0.3192   57.5488 C   0  0  0  0  0  0  0  0  0  0  0  0
   12.9561   -0.6930   55.4685 C   0  0  0  0  0  0  0  0  0  0  0  0
   12.0831   -0.8706   54.4681 F   0  0  0  0  0  0  0  0  0  0  0  0
  8  9  2  0
  8 10  1  0
  9 11  1  0
 21 23  2  0
 21 25  1  0
 22 24  1  0
 22 25  2  0
 28 30  2  0
 28 32  1  0
 29 31  1  0
 29 32  2  0
 10 12  2  0
 11 13  2  0
 23 26  1  0
 24 26  2  0
 30 33  1  0
 31 33  2  0
 25 20  1  0
 32 20  1  0
 12 13  1  0
 12 15  1  0
 13 16  1  0
 26 27  1  0
 33 34  1  0
 14 15  1  0
 14 16  1  0
 14 17  2  0
  2  4  1  0
  2  6  1  0
  3  5  1  0
  3  6  1  0
  4  7  1  0
  5  7  1  0
  6 16  1  0
 18 19  1  0
 18  1  1  0
 19 20  1  0
  1  7  1  0
M  CHG  1   7   1
M  END
>  <minimizedAffinity>  (51) 
-11.52645

>  <CNNscore>  (51) 
0.5315932631

>  <CNNaffinity>  (51) 
7.5211496353

>  <CNN_VS>  (51) 
3.9981925488

>  <CNNaffinity_variance>  (51) 
0.0630884618

>  <salt_bridge_distance>  (51) 
(3.180563399776838, 3.180563399776838)

$$$$

     RDKit          3D

 34 38  0  0  0  0  0  0  0  0999 V2000
   13.1597    0.4777   59.2321 C   0  0  0  0  0  0  0  0  0  0  0  0
   10.1533    0.6007   60.2061 C   0  0  0  0  0  0  0  0  0  0  0  0
   11.5445   -1.1018   61.4457 C   0  0  0  0  0  0  0  0  0  0  0  0
   11.2513    1.6350   60.4101 C   0  0  0  0  0  0  0  0  0  0  0  0
   12.6343   -0.0572   61.6418 C   0  0  0  0  0  0  0  0  0  0  0  0
   10.1615   -0.4621   61.3068 C   0  0  0  0  0  0  0  0  0  0  0  0
   12.6002    0.9717   60.5388 N   0  0  0  0  0  0  0  0  0  0  0  0
    7.0774   -2.6810   57.6988 C   0  0  0  0  0  0  0  0  0  0  0  0
    8.0017   -1.6313   57.5138 C   0  0  0  0  0  0  0  0  0  0  0  0
    6.8911   -3.2630   58.9556 C   0  0  0  0  0  0  0  0  0  0  0  0
    8.7606   -1.1402   58.5814 C   0  0  0  0  0  0  0  0  0  0  0  0
    7.6493   -2.7628   59.9909 C   0  0  0  0  0  0  0  0  0  0  0  0
    8.5639   -1.7262   59.8144 C   0  0  0  0  0  0  0  0  0  0  0  0
    8.6129   -2.3455   62.0292 C   0  0  0  0  0  0  0  0  0  0  0  0
    7.6676   -3.1499   61.3311 N   0  0  0  0  0  0  0  0  0  0  0  0
    9.1559   -1.4667   61.0557 N   0  0  0  0  0  0  0  0  0  0  0  0
    8.8858   -2.4134   63.2196 O   0  0  0  0  0  0  0  0  0  0  0  0
   14.4256    1.2573   58.9054 C   0  0  0  0  0  0  0  0  0  0  0  0
   15.6354    0.3188   58.8022 C   0  0  0  0  0  0  0  0  0  0  0  0
   16.4070    0.4815   57.4671 C   0  0  0  0  0  0  0  0  0  0  0  0
   18.1887   -0.9222   58.5892 C   0  0  0  0  0  0  0  0  0  0  0  0
   18.6830    0.0693   56.4423 C   0  0  0  0  0  0  0  0  0  0  0  0
   19.4618   -1.4912   58.6197 C   0  0  0  0  0  0  0  0  0  0  0  0
   19.9562   -0.4998   56.4726 C   0  0  0  0  0  0  0  0  0  0  0  0
   17.7993   -0.1420   57.5006 C   0  0  0  0  0  0  0  0  0  0  0  0
   20.3456   -1.2800   57.5613 C   0  0  0  0  0  0  0  0  0  0  0  0
   21.5691   -1.8242   57.5916 F   0  0  0  0  0  0  0  0  0  0  0  0
   15.5896    0.8033   55.0961 C   0  0  0  0  0  0  0  0  0  0  0  0
   14.9402   -1.2003   56.2798 C   0  0  0  0  0  0  0  0  0  0  0  0
   14.8719    0.3761   53.9791 C   0  0  0  0  0  0  0  0  0  0  0  0
   14.2223   -1.6274   55.1627 C   0  0  0  0  0  0  0  0  0  0  0  0
   15.6238    0.0150   56.2465 C   0  0  0  0  0  0  0  0  0  0  0  0
   14.1881   -0.8393   54.0123 C   0  0  0  0  0  0  0  0  0  0  0  0
   13.4965   -1.2483   52.9406 F   0  0  0  0  0  0  0  0  0  0  0  0
  8  9  2  0
  8 10  1  0
  9 11  1  0
 21 23  2  0
 21 25  1  0
 22 24  1  0
 22 25  2  0
 28 30  2  0
 28 32  1  0
 29 31  1  0
 29 32  2  0
 10 12  2  0
 11 13  2  0
 23 26  1  0
 24 26  2  0
 30 33  1  0
 31 33  2  0
 25 20  1  0
 32 20  1  0
 12 13  1  0
 12 15  1  0
 13 16  1  0
 26 27  1  0
 33 34  1  0
 14 15  1  0
 14 16  1  0
 14 17  2  0
  2  4  1  0
  2  6  1  0
  3  5  1  0
  3  6  1  0
  4  7  1  0
  5  7  1  0
  6 16  1  0
 18 19  1  0
 18  1  1  0
 19 20  1  0
  1  7  1  0
M  CHG  1   7   1
M  END
>  <minimizedAffinity>  (52) 
-11.35028

>  <CNNscore>  (52) 
0.4625848830

>  <CNNaffinity>  (52) 
7.4521164894

>  <CNN_VS>  (52) 
3.4472365379

>  <CNNaffinity_variance>  (52) 
0.0640651807

>  <salt_bridge_distance>  (52) 
(2.8777835168754438, 2.8777835168754438)

$$$$

     RDKit          3D

 34 38  0  0  0  0  0  0  0  0999 V2000
   13.7288   -0.5547   61.0872 C   0  0  0  0  0  0  0  0  0  0  0  0
   10.6342   -1.1224   60.7658 C   0  0  0  0  0  0  0  0  0  0  0  0
   11.1668    0.5635   62.5672 C   0  0  0  0  0  0  0  0  0  0  0  0
   11.5590   -0.3819   59.8101 C   0  0  0  0  0  0  0  0  0  0  0  0
   12.0887    1.2935   61.6005 C   0  0  0  0  0  0  0  0  0  0  0  0
   10.0562   -0.1914   61.8337 C   0  0  0  0  0  0  0  0  0  0  0  0
   12.6431    0.3470   60.5647 N   0  0  0  0  0  0  0  0  0  0  0  0
    7.3988    0.0069   66.3450 C   0  0  0  0  0  0  0  0  0  0  0  0
    8.1311    1.0445   65.7305 C   0  0  0  0  0  0  0  0  0  0  0  0
    7.3130   -1.2587   65.7585 C   0  0  0  0  0  0  0  0  0  0  0  0
    8.7939    0.8398   64.5157 C   0  0  0  0  0  0  0  0  0  0  0  0
    7.9736   -1.4360   64.5631 C   0  0  0  0  0  0  0  0  0  0  0  0
    8.6984   -0.4151   63.9512 C   0  0  0  0  0  0  0  0  0  0  0  0
    8.8506   -2.2870   62.6230 C   0  0  0  0  0  0  0  0  0  0  0  0
    8.0565   -2.5795   63.7683 N   0  0  0  0  0  0  0  0  0  0  0  0
    9.2366   -0.9284   62.7657 N   0  0  0  0  0  0  0  0  0  0  0  0
    9.1303   -3.0590   61.7165 O   0  0  0  0  0  0  0  0  0  0  0  0
   15.0740    0.1388   60.9244 C   0  0  0  0  0  0  0  0  0  0  0  0
   15.2676    0.6267   59.4823 C   0  0  0  0  0  0  0  0  0  0  0  0
   15.6214   -0.5229   58.5039 C   0  0  0  0  0  0  0  0  0  0  0  0
   13.8363    0.4938   57.0262 C   0  0  0  0  0  0  0  0  0  0  0  0
   14.8193   -1.6120   56.3659 C   0  0  0  0  0  0  0  0  0  0  0  0
   13.0245    0.4704   55.8922 C   0  0  0  0  0  0  0  0  0  0  0  0
   14.0075   -1.6354   55.2319 C   0  0  0  0  0  0  0  0  0  0  0  0
   14.7337   -0.5475   57.2631 C   0  0  0  0  0  0  0  0  0  0  0  0
   13.1101   -0.5942   54.9950 C   0  0  0  0  0  0  0  0  0  0  0  0
   12.3287   -0.6180   53.9073 F   0  0  0  0  0  0  0  0  0  0  0  0
   18.0029   -1.2501   58.9436 C   0  0  0  0  0  0  0  0  0  0  0  0
   17.5410    0.0569   56.9648 C   0  0  0  0  0  0  0  0  0  0  0  0
   19.3535   -1.2958   58.5982 C   0  0  0  0  0  0  0  0  0  0  0  0
   18.8917    0.0113   56.6195 C   0  0  0  0  0  0  0  0  0  0  0  0
   17.0966   -0.5738   58.1268 C   0  0  0  0  0  0  0  0  0  0  0  0
   19.7980   -0.6651   57.4362 C   0  0  0  0  0  0  0  0  0  0  0  0
   21.0954   -0.7066   57.1059 F   0  0  0  0  0  0  0  0  0  0  0  0
  8  9  2  0
  8 10  1  0
  9 11  1  0
 21 23  2  0
 21 25  1  0
 22 24  1  0
 22 25  2  0
 28 30  2  0
 28 32  1  0
 29 31  1  0
 29 32  2  0
 10 12  2  0
 11 13  2  0
 23 26  1  0
 24 26  2  0
 30 33  1  0
 31 33  2  0
 25 20  1  0
 32 20  1  0
 12 13  1  0
 12 15  1  0
 13 16  1  0
 26 27  1  0
 33 34  1  0
 14 15  1  0
 14 16  1  0
 14 17  2  0
  2  4  1  0
  2  6  1  0
  3  5  1  0
  3  6  1  0
  4  7  1  0
  5  7  1  0
  6 16  1  0
 18 19  1  0
 18  1  1  0
 19 20  1  0
  1  7  1  0
M  CHG  1   7   1
M  END
>  <minimizedAffinity>  (53) 
-11.02445

>  <CNNscore>  (53) 
0.3411773145

>  <CNNaffinity>  (53) 
7.4176344872

>  <CNN_VS>  (53) 
2.5307285786

>  <CNNaffinity_variance>  (53) 
0.0944304317

>  <salt_bridge_distance>  (53) 
(3.3421351708152067, 3.3421351708152067)

$$$$

     RDKit          3D

 22 24  0  0  0  0  0  0  0  0999 V2000
   21.1091   -1.0634   57.4913 C   0  0  0  0  0  0  0  0  0  0  0  0
   13.9202   -0.4180   54.7429 C   0  0  0  0  0  0  0  0  0  0  0  0
   20.4195   -1.5905   58.5660 C   0  0  0  0  0  0  0  0  0  0  0  0
   13.8160   -1.3802   55.7376 C   0  0  0  0  0  0  0  0  0  0  0  0
   20.4078   -0.3716   56.5113 C   0  0  0  0  0  0  0  0  0  0  0  0
   14.9975    0.4631   54.7483 C   0  0  0  0  0  0  0  0  0  0  0  0
   19.0340   -1.4305   58.6462 C   0  0  0  0  0  0  0  0  0  0  0  0
   14.7890   -1.4568   56.7359 C   0  0  0  0  0  0  0  0  0  0  0  0
   19.0054   -0.1801   56.5845 C   0  0  0  0  0  0  0  0  0  0  0  0
   15.9824    0.3905   55.7497 C   0  0  0  0  0  0  0  0  0  0  0  0
   18.2777   -0.7318   57.6671 C   0  0  0  0  0  0  0  0  0  0  0  0
   15.8919   -0.5757   56.7655 C   0  0  0  0  0  0  0  0  0  0  0  0
   18.4246    0.6253   55.4415 C   0  0  0  0  0  0  0  0  0  0  0  0
   17.1267    1.3622   55.7297 C   0  0  0  0  0  0  0  0  0  0  0  0
   16.8628   -0.6666   57.7962 N   0  0  0  0  0  0  0  0  0  0  0  0
   16.2898   -0.8683   59.1367 C   0  0  0  0  0  0  0  0  0  0  0  0
   16.2527    1.6592   59.0066 C   0  0  0  0  0  0  0  0  0  0  0  0
   15.6607    0.4216   59.6903 C   0  0  1  0  0  0  0  0  0  0  0  0
   14.1302    0.4678   59.5969 C   0  0  0  0  0  0  0  0  0  0  0  0
   12.0294    0.2212   60.9113 C   0  0  0  0  0  0  0  0  0  0  0  0
   14.2006   -0.5133   61.8845 C   0  0  0  0  0  0  0  0  0  0  0  0
   13.5202    0.4557   60.9480 N   0  0  0  0  0  0  0  0  0  0  0  0
  1  3  2  0
  1  5  1  0
  2  4  2  0
  2  6  1  0
  3  7  1  0
  4  8  1  0
  5  9  2  0
  6 10  2  0
  7 11  2  0
  8 12  2  0
  9 11  1  0
  9 13  1  0
 10 12  1  0
 10 14  1  0
 11 15  1  0
 12 15  1  0
 13 14  1  0
 18 17  1  6
 20 22  1  0
 21 22  1  0
 16 18  1  0
 16 15  1  0
 19 18  1  0
 19 22  1  0
M  CHG  1  22   1
M  END
>  <minimizedAffinity>  (54) 
-9.01343

>  <CNNscore>  (54) 
0.8691601753

>  <CNNaffinity>  (54) 
7.0358085632

>  <CNN_VS>  (54) 
6.1152443886

>  <CNNaffinity_variance>  (54) 
0.0837059841

>  <salt_bridge_distance>  (54) 
(2.8609809034665012, 2.8609809034665012)

$$$$

     RDKit          3D

 22 24  0  0  0  0  0  0  0  0999 V2000
   11.9018    0.0580   55.8685 C   0  0  0  0  0  0  0  0  0  0  0  0
    7.8118   -3.4425   61.4065 C   0  0  0  0  0  0  0  0  0  0  0  0
   12.2130    0.8912   56.9254 C   0  0  0  0  0  0  0  0  0  0  0  0
    8.7553   -2.6998   62.1023 C   0  0  0  0  0  0  0  0  0  0  0  0
   10.8481   -0.8381   56.0013 C   0  0  0  0  0  0  0  0  0  0  0  0
    7.5008   -3.1025   60.0932 C   0  0  0  0  0  0  0  0  0  0  0  0
   11.4751    0.8142   58.1092 C   0  0  0  0  0  0  0  0  0  0  0  0
    9.3835   -1.6177   61.4827 C   0  0  0  0  0  0  0  0  0  0  0  0
   10.0739   -0.9174   57.1858 C   0  0  0  0  0  0  0  0  0  0  0  0
    8.1311   -2.0151   59.4621 C   0  0  0  0  0  0  0  0  0  0  0  0
   10.3913   -0.0870   58.2882 C   0  0  0  0  0  0  0  0  0  0  0  0
    9.0870   -1.2509   60.1519 C   0  0  0  0  0  0  0  0  0  0  0  0
    8.9499   -1.9305   57.1305 C   0  0  0  0  0  0  0  0  0  0  0  0
    7.7654   -1.6712   58.0471 C   0  0  0  0  0  0  0  0  0  0  0  0
    9.7313   -0.1409   59.5470 N   0  0  0  0  0  0  0  0  0  0  0  0
    9.8400    1.0349   60.4255 C   0  0  0  0  0  0  0  0  0  0  0  0
   11.0509    1.3798   62.6212 C   0  0  0  0  0  0  0  0  0  0  0  0
   11.2099    1.1044   61.1217 C   0  0  1  0  0  0  0  0  0  0  0  0
   12.0846   -0.1394   60.9193 C   0  0  0  0  0  0  0  0  0  0  0  0
   14.1305   -0.7343   62.2086 C   0  0  0  0  0  0  0  0  0  0  0  0
   14.3353    0.1998   59.9095 C   0  0  0  0  0  0  0  0  0  0  0  0
   13.5111    0.1737   61.1739 N   0  0  0  0  0  0  0  0  0  0  0  0
  1  3  2  0
  1  5  1  0
  2  4  2  0
  2  6  1  0
  3  7  1  0
  4  8  1  0
  5  9  2  0
  6 10  2  0
  7 11  2  0
  8 12  2  0
  9 11  1  0
  9 13  1  0
 10 12  1  0
 10 14  1  0
 11 15  1  0
 12 15  1  0
 13 14  1  0
 18 17  1  1
 20 22  1  0
 21 22  1  0
 16 18  1  0
 16 15  1  0
 19 18  1  0
 19 22  1  0
M  CHG  1  22   1
M  END
>  <minimizedAffinity>  (55) 
-7.63190

>  <CNNscore>  (55) 
0.5493441820

>  <CNNaffinity>  (55) 
6.0202078819

>  <CNN_VS>  (55) 
3.3071660995

>  <CNNaffinity_variance>  (55) 
0.1199744493

>  <salt_bridge_distance>  (55) 
(3.0646819263995395, 3.0646819263995395)

$$$$

     RDKit          3D

 22 24  0  0  0  0  0  0  0  0999 V2000
    7.2648    0.2552   66.0180 C   0  0  0  0  0  0  0  0  0  0  0  0
    8.7287   -3.3987   59.3729 C   0  0  0  0  0  0  0  0  0  0  0  0
    8.3050    1.0426   65.5638 C   0  0  0  0  0  0  0  0  0  0  0  0
    9.2801   -2.1379   59.1932 C   0  0  0  0  0  0  0  0  0  0  0  0
    7.0300   -0.9719   65.4098 C   0  0  0  0  0  0  0  0  0  0  0  0
    8.4919   -3.8688   60.6614 C   0  0  0  0  0  0  0  0  0  0  0  0
    9.0946    0.6012   64.4991 C   0  0  0  0  0  0  0  0  0  0  0  0
    9.5948   -1.3517   60.3032 C   0  0  0  0  0  0  0  0  0  0  0  0
    7.8322   -1.4473   64.3424 C   0  0  0  0  0  0  0  0  0  0  0  0
    8.8046   -3.0814   61.7841 C   0  0  0  0  0  0  0  0  0  0  0  0
    8.8895   -0.6450   63.8481 C   0  0  0  0  0  0  0  0  0  0  0  0
    9.3653   -1.8037   61.6210 C   0  0  0  0  0  0  0  0  0  0  0  0
    7.4428   -2.8182   63.8311 C   0  0  0  0  0  0  0  0  0  0  0  0
    8.5436   -3.6232   63.1598 C   0  0  0  0  0  0  0  0  0  0  0  0
    9.7027   -0.9904   62.7337 N   0  0  0  0  0  0  0  0  0  0  0  0
   11.0067   -0.3200   62.6064 C   0  0  0  0  0  0  0  0  0  0  0  0
   10.8018    2.0469   61.7333 C   0  0  0  0  0  0  0  0  0  0  0  0
   11.0669    0.5833   61.3629 C   0  0  1  0  0  0  0  0  0  0  0  0
   12.3786    0.4842   60.5738 C   0  0  0  0  0  0  0  0  0  0  0  0
   13.7958    1.6752   58.9079 C   0  0  0  0  0  0  0  0  0  0  0  0
   11.4073    1.1946   58.3938 C   0  0  0  0  0  0  0  0  0  0  0  0
   12.4124    1.4862   59.4817 N   0  0  0  0  0  0  0  0  0  0  0  0
  1  3  2  0
  1  5  1  0
  2  4  2  0
  2  6  1  0
  3  7  1  0
  4  8  1  0
  5  9  2  0
  6 10  2  0
  7 11  2  0
  8 12  2  0
  9 11  1  0
  9 13  1  0
 10 12  1  0
 10 14  1  0
 11 15  1  0
 12 15  1  0
 13 14  1  0
 18 17  1  1
 20 22  1  0
 21 22  1  0
 16 18  1  0
 16 15  1  0
 19 18  1  0
 19 22  1  0
M  CHG  1  22   1
M  END
>  <minimizedAffinity>  (56) 
-7.95418

>  <CNNscore>  (56) 
0.5411765575

>  <CNNaffinity>  (56) 
5.9773507118

>  <CNN_VS>  (56) 
3.2348020077

>  <CNNaffinity_variance>  (56) 
0.1132550016

>  <salt_bridge_distance>  (56) 
(3.2993636189422975, 3.2993636189422975)

$$$$

     RDKit          3D

 22 24  0  0  0  0  0  0  0  0999 V2000
   18.5681   -0.8146   58.4487 C   0  0  0  0  0  0  0  0  0  0  0  0
   12.8996   -0.8271   53.2029 C   0  0  0  0  0  0  0  0  0  0  0  0
   17.4939   -1.0185   59.2929 C   0  0  0  0  0  0  0  0  0  0  0  0
   12.3488   -1.4806   54.2963 C   0  0  0  0  0  0  0  0  0  0  0  0
   18.3331   -0.4044   57.1420 C   0  0  0  0  0  0  0  0  0  0  0  0
   14.0008    0.0051   53.3818 C   0  0  0  0  0  0  0  0  0  0  0  0
   16.1941   -0.8207   58.8205 C   0  0  0  0  0  0  0  0  0  0  0  0
   12.9002   -1.2982   55.5659 C   0  0  0  0  0  0  0  0  0  0  0  0
   17.0236   -0.1780   56.6495 C   0  0  0  0  0  0  0  0  0  0  0  0
   14.5626    0.1920   54.6576 C   0  0  0  0  0  0  0  0  0  0  0  0
   15.9083   -0.4027   57.4929 C   0  0  0  0  0  0  0  0  0  0  0  0
   14.0168   -0.4599   55.7759 C   0  0  0  0  0  0  0  0  0  0  0  0
   16.9701    0.2953   55.2122 C   0  0  0  0  0  0  0  0  0  0  0  0
   15.7453    1.1033   54.8156 C   0  0  0  0  0  0  0  0  0  0  0  0
   14.5534   -0.2824   57.0774 N   0  0  0  0  0  0  0  0  0  0  0  0
   13.5325   -0.1027   58.1220 C   0  0  0  0  0  0  0  0  0  0  0  0
   11.4783    1.2020   57.4259 C   0  0  0  0  0  0  0  0  0  0  0  0
   12.8765    1.2866   58.0484 C   0  0  1  0  0  0  0  0  0  0  0  0
   12.7946    2.0180   59.3943 C   0  0  0  0  0  0  0  0  0  0  0  0
   11.5075    0.7906   61.1375 C   0  0  0  0  0  0  0  0  0  0  0  0
   10.8395    3.1009   60.4922 C   0  0  0  0  0  0  0  0  0  0  0  0
   11.4693    1.8108   60.0256 N   0  0  0  0  0  0  0  0  0  0  0  0
  1  3  2  0
  1  5  1  0
  2  4  2  0
  2  6  1  0
  3  7  1  0
  4  8  1  0
  5  9  2  0
  6 10  2  0
  7 11  2  0
  8 12  2  0
  9 11  1  0
  9 13  1  0
 10 12  1  0
 10 14  1  0
 11 15  1  0
 12 15  1  0
 13 14  1  0
 18 17  1  1
 20 22  1  0
 21 22  1  0
 16 18  1  0
 16 15  1  0
 19 18  1  0
 19 22  1  0
M  CHG  1  22   1
M  END
>  <minimizedAffinity>  (57) 
-7.80363

>  <CNNscore>  (57) 
0.4316118062

>  <CNNaffinity>  (57) 
6.1414651871

>  <CNN_VS>  (57) 
2.6507289410

>  <CNNaffinity_variance>  (57) 
0.1030700207

>  <salt_bridge_distance>  (57) 
(3.371767502364303, 3.371767502364303)

$$$$

     RDKit          3D

 22 24  0  0  0  0  0  0  0  0999 V2000
   15.1647    0.4621   58.0081 C   0  0  0  0  0  0  0  0  0  0  0  0
    7.8949   -2.1405   57.8424 C   0  0  0  0  0  0  0  0  0  0  0  0
   14.5903    1.3725   58.8738 C   0  0  0  0  0  0  0  0  0  0  0  0
    7.9630   -1.4041   59.0167 C   0  0  0  0  0  0  0  0  0  0  0  0
   14.3423   -0.3340   57.2203 C   0  0  0  0  0  0  0  0  0  0  0  0
    8.8257   -1.9131   56.8329 C   0  0  0  0  0  0  0  0  0  0  0  0
   13.1989    1.4718   58.9519 C   0  0  0  0  0  0  0  0  0  0  0  0
    8.9609   -0.4409   59.1769 C   0  0  0  0  0  0  0  0  0  0  0  0
   12.9293   -0.2342   57.2691 C   0  0  0  0  0  0  0  0  0  0  0  0
    9.8349   -0.9458   56.9882 C   0  0  0  0  0  0  0  0  0  0  0  0
   12.3211    0.6776   58.1661 C   0  0  0  0  0  0  0  0  0  0  0  0
    9.9175   -0.1897   58.1693 C   0  0  0  0  0  0  0  0  0  0  0  0
   12.2046   -1.1601   56.3153 C   0  0  0  0  0  0  0  0  0  0  0  0
   10.8174   -0.7208   55.8755 C   0  0  0  0  0  0  0  0  0  0  0  0
   10.9164    0.8015   58.3512 N   0  0  0  0  0  0  0  0  0  0  0  0
   10.4143    2.0488   58.9496 C   0  0  0  0  0  0  0  0  0  0  0  0
   10.8101    3.7645   60.7679 C   0  0  0  0  0  0  0  0  0  0  0  0
   11.0395    2.3137   60.3298 C   0  0  1  0  0  0  0  0  0  0  0  0
   10.5584    1.3632   61.4335 C   0  0  0  0  0  0  0  0  0  0  0  0
   11.1152    1.1449   63.8510 C   0  0  0  0  0  0  0  0  0  0  0  0
   12.4233   -0.1220   62.1526 C   0  0  0  0  0  0  0  0  0  0  0  0
   11.6295    1.1314   62.4319 N   0  0  0  0  0  0  0  0  0  0  0  0
  1  3  2  0
  1  5  1  0
  2  4  2  0
  2  6  1  0
  3  7  1  0
  4  8  1  0
  5  9  2  0
  6 10  2  0
  7 11  2  0
  8 12  2  0
  9 11  1  0
  9 13  1  0
 10 12  1  0
 10 14  1  0
 11 15  1  0
 12 15  1  0
 13 14  1  0
 18 17  1  1
 20 22  1  0
 21 22  1  0
 16 18  1  0
 16 15  1  0
 19 18  1  0
 19 22  1  0
M  CHG  1  22   1
M  END
>  <minimizedAffinity>  (58) 
-8.13897

>  <CNNscore>  (58) 
0.4191177785

>  <CNNaffinity>  (58) 
5.9635071754

>  <CNN_VS>  (58) 
2.4994118214

>  <CNNaffinity_variance>  (58) 
0.2947306335

>  <salt_bridge_distance>  (58) 
(3.0951673008094414, 3.0951673008094414)

$$$$

     RDKit          3D

 28 31  0  0  0  0  0  0  0  0999 V2000
   10.8760    0.4896   59.1935 C   0  0  0  0  0  0  0  0  0  0  0  0
   12.7418    0.1457   60.9089 C   0  0  0  0  0  0  0  0  0  0  0  0
   13.0380    1.6906   59.0166 C   0  0  0  0  0  0  0  0  0  0  0  0
   14.0785   -0.5170   60.6094 C   0  0  0  0  0  0  0  0  0  0  0  0
   14.3853    1.0622   58.6875 C   0  0  0  0  0  0  0  0  0  0  0  0
   12.1675    0.7259   59.6882 N   0  0  0  0  0  0  0  0  0  0  0  0
   14.9921    0.4963   59.9530 N   0  0  0  0  0  0  0  0  0  0  0  0
   10.3754    1.1250   58.2661 O   0  0  0  0  0  0  0  0  0  0  0  0
    9.6847   -2.0299   61.7245 C   0  0  0  0  0  0  0  0  0  0  0  0
    8.6170   -2.6426   61.0587 C   0  0  0  0  0  0  0  0  0  0  0  0
   10.4160   -1.0124   61.1147 C   0  0  0  0  0  0  0  0  0  0  0  0
    7.4578   -1.8233   57.6904 C   0  0  0  0  0  0  0  0  0  0  0  0
    7.2936   -2.6042   58.8111 C   0  0  0  0  0  0  0  0  0  0  0  0
    8.2850   -2.2189   59.7565 C   0  0  0  0  0  0  0  0  0  0  0  0
   10.1051   -0.5756   59.8238 C   0  0  0  0  0  0  0  0  0  0  0  0
    9.0351   -1.1971   59.1703 C   0  0  0  0  0  0  0  0  0  0  0  0
    8.5108   -0.9780   57.9164 N   0  0  0  0  0  0  0  0  0  0  0  0
    6.2942   -3.6090   58.9558 C   0  0  0  0  0  0  0  0  0  0  0  0
    5.4799   -4.4273   59.0736 N   0  0  0  0  0  0  0  0  0  0  0  0
   16.3650   -0.0652   59.7109 C   0  0  0  0  0  0  0  0  0  0  0  0
   16.6495   -0.1462   58.2144 C   0  0  0  0  0  0  0  0  0  0  0  0
   18.8208   -1.2661   58.7860 C   0  0  0  0  0  0  0  0  0  0  0  0
   18.6322   -0.0998   56.6786 C   0  0  0  0  0  0  0  0  0  0  0  0
   20.1386   -1.6061   58.4800 C   0  0  0  0  0  0  0  0  0  0  0  0
   19.9500   -0.4397   56.3725 C   0  0  0  0  0  0  0  0  0  0  0  0
   18.0676   -0.5131   57.8852 C   0  0  0  0  0  0  0  0  0  0  0  0
   20.7031   -1.1929   57.2733 C   0  0  0  0  0  0  0  0  0  0  0  0
   21.9695   -1.5169   56.9805 F   0  0  0  0  0  0  0  0  0  0  0  0
 18 13  1  0
 18 19  3  0
  9 10  2  0
  9 11  1  0
 10 14  1  0
 11 15  2  0
 22 24  2  0
 22 26  1  0
 23 25  1  0
 23 26  2  0
 24 27  1  0
 25 27  2  0
 12 13  2  0
 12 17  1  0
 13 14  1  0
 14 16  2  0
 15 16  1  0
 15  1  1  0
 26 21  1  0
 16 17  1  0
 27 28  1  0
  1  6  1  0
  1  8  2  0
  2  4  1  0
  2  6  1  0
  3  5  1  0
  3  6  1  0
  4  7  1  0
  5  7  1  0
 21 20  1  0
 20  7  1  0
M  CHG  1   7   1
M  END
>  <minimizedAffinity>  (59) 
-10.28669

>  <CNNscore>  (59) 
0.7858277559

>  <CNNaffinity>  (59) 
6.8564748764

>  <CNN_VS>  (59) 
5.3880081177

>  <CNNaffinity_variance>  (59) 
0.0286043398

>  <salt_bridge_distance>  (59) 
(3.4330793028999462, 3.4330793028999462)

$$$$

     RDKit          3D

 28 31  0  0  0  0  0  0  0  0999 V2000
   10.2250    0.1035   60.9413 C   0  0  0  0  0  0  0  0  0  0  0  0
   12.4421    0.3126   62.1995 C   0  0  0  0  0  0  0  0  0  0  0  0
   12.2193    1.1378   59.8920 C   0  0  0  0  0  0  0  0  0  0  0  0
   13.7155   -0.4365   61.8351 C   0  0  0  0  0  0  0  0  0  0  0  0
   13.4944    0.4111   59.4868 C   0  0  0  0  0  0  0  0  0  0  0  0
   11.5780    0.4664   61.0221 N   0  0  0  0  0  0  0  0  0  0  0  0
   14.3993    0.2850   60.6932 N   0  0  0  0  0  0  0  0  0  0  0  0
    9.4945    0.4051   59.9980 O   0  0  0  0  0  0  0  0  0  0  0  0
    9.5195   -1.1398   64.4240 C   0  0  0  0  0  0  0  0  0  0  0  0
    8.6220   -2.1884   64.1925 C   0  0  0  0  0  0  0  0  0  0  0  0
   10.0379   -0.3976   63.3646 C   0  0  0  0  0  0  0  0  0  0  0  0
    7.4083   -3.2667   60.9176 C   0  0  0  0  0  0  0  0  0  0  0  0
    7.3810   -3.4561   62.2800 C   0  0  0  0  0  0  0  0  0  0  0  0
    8.2439   -2.4898   62.8689 C   0  0  0  0  0  0  0  0  0  0  0  0
    9.6773   -0.6783   62.0436 C   0  0  0  0  0  0  0  0  0  0  0  0
    8.7792   -1.7293   61.8271 C   0  0  0  0  0  0  0  0  0  0  0  0
    8.2546   -2.2232   60.6541 N   0  0  0  0  0  0  0  0  0  0  0  0
    6.6104   -4.4553   62.9410 C   0  0  0  0  0  0  0  0  0  0  0  0
    5.9828   -5.2695   63.4794 N   0  0  0  0  0  0  0  0  0  0  0  0
   15.7147   -0.3503   60.3401 C   0  0  0  0  0  0  0  0  0  0  0  0
   15.7952   -0.6057   58.8383 C   0  0  0  0  0  0  0  0  0  0  0  0
   17.4976    0.0719   57.1241 C   0  0  0  0  0  0  0  0  0  0  0  0
   18.1966   -1.3179   58.9725 C   0  0  0  0  0  0  0  0  0  0  0  0
   18.7993    0.0603   56.6230 C   0  0  0  0  0  0  0  0  0  0  0  0
   19.4984   -1.3296   58.4714 C   0  0  0  0  0  0  0  0  0  0  0  0
   17.1963   -0.6171   58.2989 C   0  0  0  0  0  0  0  0  0  0  0  0
   19.7997   -0.6404   57.2966 C   0  0  0  0  0  0  0  0  0  0  0  0
   21.0492   -0.6539   56.8140 F   0  0  0  0  0  0  0  0  0  0  0  0
 18 13  1  0
 18 19  3  0
  9 10  2  0
  9 11  1  0
 10 14  1  0
 11 15  2  0
 22 24  2  0
 22 26  1  0
 23 25  1  0
 23 26  2  0
 24 27  1  0
 25 27  2  0
 12 13  2  0
 12 17  1  0
 13 14  1  0
 14 16  2  0
 15 16  1  0
 15  1  1  0
 26 21  1  0
 16 17  1  0
 27 28  1  0
  1  6  1  0
  1  8  2  0
  2  4  1  0
  2  6  1  0
  3  5  1  0
  3  6  1  0
  4  7  1  0
  5  7  1  0
 21 20  1  0
 20  7  1  0
M  CHG  1   7   1
M  END
>  <minimizedAffinity>  (60) 
-9.76669

>  <CNNscore>  (60) 
0.7841584086

>  <CNNaffinity>  (60) 
6.8795585632

>  <CNN_VS>  (60) 
5.3946638107

>  <CNNaffinity_variance>  (60) 
0.1128222793

>  <salt_bridge_distance>  (60) 
(3.1151357803473037, 3.1151357803473037)

$$$$

     RDKit          3D

 28 31  0  0  0  0  0  0  0  0999 V2000
   10.0447    0.7976   59.4588 C   0  0  0  0  0  0  0  0  0  0  0  0
   12.2939    0.1159   60.4680 C   0  0  0  0  0  0  0  0  0  0  0  0
   11.9862    2.3400   59.4610 C   0  0  0  0  0  0  0  0  0  0  0  0
   13.5702   -0.0975   59.6674 C   0  0  0  0  0  0  0  0  0  0  0  0
   13.2625    2.1715   58.6480 C   0  0  0  0  0  0  0  0  0  0  0  0
   11.3921    1.0388   59.7669 N   0  0  0  0  0  0  0  0  0  0  0  0
   14.2054    1.2484   59.3890 N   0  0  0  0  0  0  0  0  0  0  0  0
    9.2806    1.6596   59.0257 O   0  0  0  0  0  0  0  0  0  0  0  0
    8.8555   -2.7069   58.7681 C   0  0  0  0  0  0  0  0  0  0  0  0
    8.5764   -3.1879   60.0524 C   0  0  0  0  0  0  0  0  0  0  0  0
    9.3326   -1.4111   58.5798 C   0  0  0  0  0  0  0  0  0  0  0  0
    8.9837   -1.3115   63.1627 C   0  0  0  0  0  0  0  0  0  0  0  0
    8.6122   -2.4946   62.5669 C   0  0  0  0  0  0  0  0  0  0  0  0
    8.7835   -2.3446   61.1622 C   0  0  0  0  0  0  0  0  0  0  0  0
    9.5455   -0.5567   59.6654 C   0  0  0  0  0  0  0  0  0  0  0  0
    9.2623   -1.0511   60.9435 C   0  0  0  0  0  0  0  0  0  0  0  0
    9.3741   -0.4469   62.1755 N   0  0  0  0  0  0  0  0  0  0  0  0
    8.1445   -3.6412   63.2710 C   0  0  0  0  0  0  0  0  0  0  0  0
    7.7635   -4.5752   63.8447 N   0  0  0  0  0  0  0  0  0  0  0  0
   15.5218    1.1073   58.6778 C   0  0  0  0  0  0  0  0  0  0  0  0
   15.9995   -0.3405   58.7266 C   0  0  0  0  0  0  0  0  0  0  0  0
   18.3410   -1.1869   59.0379 C   0  0  0  0  0  0  0  0  0  0  0  0
   17.7763   -0.0556   56.9791 C   0  0  0  0  0  0  0  0  0  0  0  0
   19.6473   -1.3643   58.5821 C   0  0  0  0  0  0  0  0  0  0  0  0
   19.0827   -0.2329   56.5234 C   0  0  0  0  0  0  0  0  0  0  0  0
   17.4055   -0.5326   58.2363 C   0  0  0  0  0  0  0  0  0  0  0  0
   20.0182   -0.8873   57.3249 C   0  0  0  0  0  0  0  0  0  0  0  0
   21.2734   -1.0552   56.8883 F   0  0  0  0  0  0  0  0  0  0  0  0
 18 13  1  0
 18 19  3  0
  9 10  2  0
  9 11  1  0
 10 14  1  0
 11 15  2  0
 22 24  2  0
 22 26  1  0
 23 25  1  0
 23 26  2  0
 24 27  1  0
 25 27  2  0
 12 13  2  0
 12 17  1  0
 13 14  1  0
 14 16  2  0
 15 16  1  0
 15  1  1  0
 26 21  1  0
 16 17  1  0
 27 28  1  0
  1  6  1  0
  1  8  2  0
  2  4  1  0
  2  6  1  0
  3  5  1  0
  3  6  1  0
  4  7  1  0
  5  7  1  0
 21 20  1  0
 20  7  1  0
M  CHG  1   7   1
M  END
>  <minimizedAffinity>  (61) 
-9.63878

>  <CNNscore>  (61) 
0.7493207455

>  <CNNaffinity>  (61) 
6.7567853928

>  <CNN_VS>  (61) 
5.0629992485

>  <CNNaffinity_variance>  (61) 
0.0185811818

>  <salt_bridge_distance>  (61) 
(3.14627130425842, 3.14627130425842)

$$$$

     RDKit          3D

 28 31  0  0  0  0  0  0  0  0999 V2000
   10.3051    0.5029   59.3058 C   0  0  0  0  0  0  0  0  0  0  0  0
   12.3280   -0.0736   60.7611 C   0  0  0  0  0  0  0  0  0  0  0  0
   12.2507    2.0296   59.4860 C   0  0  0  0  0  0  0  0  0  0  0  0
   13.7192   -0.3769   60.2245 C   0  0  0  0  0  0  0  0  0  0  0  0
   13.6451    1.7697   58.9326 C   0  0  0  0  0  0  0  0  0  0  0  0
   11.5833    0.7713   59.8187 N   0  0  0  0  0  0  0  0  0  0  0  0
   14.4233    0.9288   59.9212 N   0  0  0  0  0  0  0  0  0  0  0  0
    9.6478    1.3157   58.6563 O   0  0  0  0  0  0  0  0  0  0  0  0
    9.0355   -2.9986   58.7582 C   0  0  0  0  0  0  0  0  0  0  0  0
    8.6650   -3.3892   60.0501 C   0  0  0  0  0  0  0  0  0  0  0  0
    9.5681   -1.7329   58.5209 C   0  0  0  0  0  0  0  0  0  0  0  0
    8.9559   -1.3355   63.0598 C   0  0  0  0  0  0  0  0  0  0  0  0
    8.5782   -2.5412   62.5155 C   0  0  0  0  0  0  0  0  0  0  0  0
    8.8365   -2.4850   61.1172 C   0  0  0  0  0  0  0  0  0  0  0  0
    9.7473   -0.8194   59.5636 C   0  0  0  0  0  0  0  0  0  0  0  0
    9.3726   -1.2235   60.8498 C   0  0  0  0  0  0  0  0  0  0  0  0
    9.4335   -0.5472   62.0474 N   0  0  0  0  0  0  0  0  0  0  0  0
    8.0300   -3.6261   63.2583 C   0  0  0  0  0  0  0  0  0  0  0  0
    7.5834   -4.5098   63.8634 N   0  0  0  0  0  0  0  0  0  0  0  0
   15.8401    0.7070   59.4715 C   0  0  0  0  0  0  0  0  0  0  0  0
   15.9164   -0.4874   58.5256 C   0  0  0  0  0  0  0  0  0  0  0  0
   14.9303   -0.3835   56.2208 C   0  0  0  0  0  0  0  0  0  0  0  0
   17.1426    0.5176   56.5819 C   0  0  0  0  0  0  0  0  0  0  0  0
   15.0070   -0.0321   54.8731 C   0  0  0  0  0  0  0  0  0  0  0  0
   17.2194    0.8691   55.2341 C   0  0  0  0  0  0  0  0  0  0  0  0
   15.9980   -0.1086   57.0751 C   0  0  0  0  0  0  0  0  0  0  0  0
   16.1516    0.5942   54.3798 C   0  0  0  0  0  0  0  0  0  0  0  0
   16.2265    0.9293   53.0850 F   0  0  0  0  0  0  0  0  0  0  0  0
 18 13  1  0
 18 19  3  0
  9 10  2  0
  9 11  1  0
 10 14  1  0
 11 15  2  0
 22 24  2  0
 22 26  1  0
 23 25  1  0
 23 26  2  0
 24 27  1  0
 25 27  2  0
 12 13  2  0
 12 17  1  0
 13 14  1  0
 14 16  2  0
 15 16  1  0
 15  1  1  0
 26 21  1  0
 16 17  1  0
 27 28  1  0
  1  6  1  0
  1  8  2  0
  2  4  1  0
  2  6  1  0
  3  5  1  0
  3  6  1  0
  4  7  1  0
  5  7  1  0
 21 20  1  0
 20  7  1  0
M  CHG  1   7   1
M  END
>  <minimizedAffinity>  (62) 
-8.97163

>  <CNNscore>  (62) 
0.5860061049

>  <CNNaffinity>  (62) 
6.7538084984

>  <CNN_VS>  (62) 
3.9577729702

>  <CNNaffinity_variance>  (62) 
0.0151685951

>  <salt_bridge_distance>  (62) 
(2.9936192426559525, 2.9936192426559525)

$$$$

     RDKit          3D

 28 31  0  0  0  0  0  0  0  0999 V2000
   10.1276   -0.0528   60.8060 C   0  0  0  0  0  0  0  0  0  0  0  0
   12.2775    0.3730   62.1245 C   0  0  0  0  0  0  0  0  0  0  0  0
   12.0695    1.1008   59.7831 C   0  0  0  0  0  0  0  0  0  0  0  0
   13.6172   -0.2846   61.8272 C   0  0  0  0  0  0  0  0  0  0  0  0
   13.4105    0.4642   59.4442 C   0  0  0  0  0  0  0  0  0  0  0  0
   11.4445    0.4186   60.9159 N   0  0  0  0  0  0  0  0  0  0  0  0
   14.2810    0.4504   60.6820 N   0  0  0  0  0  0  0  0  0  0  0  0
    9.4082    0.1585   59.8301 O   0  0  0  0  0  0  0  0  0  0  0  0
    9.5299   -1.3314   64.2961 C   0  0  0  0  0  0  0  0  0  0  0  0
    8.6003   -2.3562   64.0853 C   0  0  0  0  0  0  0  0  0  0  0  0
   10.0234   -0.5853   63.2275 C   0  0  0  0  0  0  0  0  0  0  0  0
    7.2359   -3.3587   60.8459 C   0  0  0  0  0  0  0  0  0  0  0  0
    7.2572   -3.5675   62.2056 C   0  0  0  0  0  0  0  0  0  0  0  0
    8.1642   -2.6295   62.7736 C   0  0  0  0  0  0  0  0  0  0  0  0
    9.6055   -0.8384   61.9179 C   0  0  0  0  0  0  0  0  0  0  0  0
    8.6758   -1.8658   61.7222 C   0  0  0  0  0  0  0  0  0  0  0  0
    8.0948   -2.3306   60.5639 N   0  0  0  0  0  0  0  0  0  0  0  0
    6.4903   -4.5590   62.8824 C   0  0  0  0  0  0  0  0  0  0  0  0
    5.8655   -5.3668   63.4335 N   0  0  0  0  0  0  0  0  0  0  0  0
   15.6532   -0.0901   60.3932 C   0  0  0  0  0  0  0  0  0  0  0  0
   15.6021   -1.0749   59.2293 C   0  0  0  0  0  0  0  0  0  0  0  0
   15.3355   -0.9067   56.7401 C   0  0  0  0  0  0  0  0  0  0  0  0
   16.9342    0.5331   57.8393 C   0  0  0  0  0  0  0  0  0  0  0  0
   15.6741   -0.3434   55.5097 C   0  0  0  0  0  0  0  0  0  0  0  0
   17.2729    1.0964   56.6089 C   0  0  0  0  0  0  0  0  0  0  0  0
   15.9655   -0.4684   57.9048 C   0  0  0  0  0  0  0  0  0  0  0  0
   16.6428    0.6581   55.4442 C   0  0  0  0  0  0  0  0  0  0  0  0
   16.9700    1.1972   54.2623 F   0  0  0  0  0  0  0  0  0  0  0  0
 18 13  1  0
 18 19  3  0
  9 10  2  0
  9 11  1  0
 10 14  1  0
 11 15  2  0
 22 24  2  0
 22 26  1  0
 23 25  1  0
 23 26  2  0
 24 27  1  0
 25 27  2  0
 12 13  2  0
 12 17  1  0
 13 14  1  0
 14 16  2  0
 15 16  1  0
 15  1  1  0
 26 21  1  0
 16 17  1  0
 27 28  1  0
  1  6  1  0
  1  8  2  0
  2  4  1  0
  2  6  1  0
  3  5  1  0
  3  6  1  0
  4  7  1  0
  5  7  1  0
 21 20  1  0
 20  7  1  0
M  CHG  1   7   1
M  END
>  <minimizedAffinity>  (63) 
-9.10123

>  <CNNscore>  (63) 
0.5800582170

>  <CNNaffinity>  (63) 
6.6573419571

>  <CNN_VS>  (63) 
3.8616459370

>  <CNNaffinity_variance>  (63) 
0.0600529239

>  <salt_bridge_distance>  (63) 
(2.9542909064613103, 2.9542909064613103)

$$$$

     RDKit          3D

 28 31  0  0  0  0  0  0  0  0999 V2000
    9.6421    0.8052   59.7754 C   0  0  0  0  0  0  0  0  0  0  0  0
   11.9518    0.1936   60.6885 C   0  0  0  0  0  0  0  0  0  0  0  0
   11.5747    2.3422   59.5498 C   0  0  0  0  0  0  0  0  0  0  0  0
   13.1768   -0.0763   59.8272 C   0  0  0  0  0  0  0  0  0  0  0  0
   12.7989    2.1162   58.6731 C   0  0  0  0  0  0  0  0  0  0  0  0
   11.0052    1.0662   59.9819 N   0  0  0  0  0  0  0  0  0  0  0  0
   13.7890    1.2463   59.4168 N   0  0  0  0  0  0  0  0  0  0  0  0
    8.8497    1.6356   59.3313 O   0  0  0  0  0  0  0  0  0  0  0  0
    9.0635   -2.4146   61.6383 C   0  0  0  0  0  0  0  0  0  0  0  0
    8.2356   -3.1245   60.7611 C   0  0  0  0  0  0  0  0  0  0  0  0
    9.5181   -1.1379   61.3140 C   0  0  0  0  0  0  0  0  0  0  0  0
    7.0576   -1.9322   57.5128 C   0  0  0  0  0  0  0  0  0  0  0  0
    7.0594   -2.9492   58.4393 C   0  0  0  0  0  0  0  0  0  0  0  0
    7.8626   -2.5329   59.5378 C   0  0  0  0  0  0  0  0  0  0  0  0
    9.1614   -0.5310   60.1064 C   0  0  0  0  0  0  0  0  0  0  0  0
    8.3331   -1.2523   59.2393 C   0  0  0  0  0  0  0  0  0  0  0  0
    7.8288   -0.9132   58.0040 N   0  0  0  0  0  0  0  0  0  0  0  0
    6.3656   -4.1837   58.2846 C   0  0  0  0  0  0  0  0  0  0  0  0
    5.8005   -5.1894   58.1586 N   0  0  0  0  0  0  0  0  0  0  0  0
   15.0594    1.0547   58.6371 C   0  0  0  0  0  0  0  0  0  0  0  0
   15.0683   -0.3142   57.9641 C   0  0  0  0  0  0  0  0  0  0  0  0
   15.4332    0.2343   55.5429 C   0  0  0  0  0  0  0  0  0  0  0  0
   13.3491   -0.7949   56.2019 C   0  0  0  0  0  0  0  0  0  0  0  0
   15.0031    0.2560   54.2162 C   0  0  0  0  0  0  0  0  0  0  0  0
   12.9188   -0.7731   54.8751 C   0  0  0  0  0  0  0  0  0  0  0  0
   14.6062   -0.2913   56.5357 C   0  0  0  0  0  0  0  0  0  0  0  0
   13.7459   -0.2477   53.8824 C   0  0  0  0  0  0  0  0  0  0  0  0
   13.3316   -0.2244   52.6087 F   0  0  0  0  0  0  0  0  0  0  0  0
 18 13  1  0
 18 19  3  0
  9 10  2  0
  9 11  1  0
 10 14  1  0
 11 15  2  0
 22 24  2  0
 22 26  1  0
 23 25  1  0
 23 26  2  0
 24 27  1  0
 25 27  2  0
 12 13  2  0
 12 17  1  0
 13 14  1  0
 14 16  2  0
 15 16  1  0
 15  1  1  0
 26 21  1  0
 16 17  1  0
 27 28  1  0
  1  6  1  0
  1  8  2  0
  2  4  1  0
  2  6  1  0
  3  5  1  0
  3  6  1  0
  4  7  1  0
  5  7  1  0
 21 20  1  0
 20  7  1  0
M  CHG  1   7   1
M  END
>  <minimizedAffinity>  (64) 
-9.00633

>  <CNNscore>  (64) 
0.5294708014

>  <CNNaffinity>  (64) 
6.4593977928

>  <CNN_VS>  (64) 
3.4200625420

>  <CNNaffinity_variance>  (64) 
0.1214717031

>  <salt_bridge_distance>  (64) 
(3.1182370868809803, 3.1182370868809803)

$$$$

     RDKit          3D

 28 31  0  0  0  0  0  0  0  0999 V2000
    9.8480    0.7640   60.4588 C   0  0  0  0  0  0  0  0  0  0  0  0
   12.3064    0.6566   61.1566 C   0  0  0  0  0  0  0  0  0  0  0  0
   11.5600    2.2152   59.4048 C   0  0  0  0  0  0  0  0  0  0  0  0
   13.4354    0.1578   60.2667 C   0  0  0  0  0  0  0  0  0  0  0  0
   12.6815    1.7516   58.4853 C   0  0  0  0  0  0  0  0  0  0  0  0
   11.1901    1.1567   60.3439 N   0  0  0  0  0  0  0  0  0  0  0  0
   13.8450    1.2699   59.3244 N   0  0  0  0  0  0  0  0  0  0  0  0
    8.9213    1.3294   59.8791 O   0  0  0  0  0  0  0  0  0  0  0  0
    9.0367   -2.7422   61.5640 C   0  0  0  0  0  0  0  0  0  0  0  0
    8.9973   -2.6163   62.9574 C   0  0  0  0  0  0  0  0  0  0  0  0
    9.3136   -1.6411   60.7559 C   0  0  0  0  0  0  0  0  0  0  0  0
    9.5756    0.4674   64.8326 C   0  0  0  0  0  0  0  0  0  0  0  0
    9.2822   -0.8759   64.8794 C   0  0  0  0  0  0  0  0  0  0  0  0
    9.2420   -1.3573   63.5409 C   0  0  0  0  0  0  0  0  0  0  0  0
    9.5594   -0.3826   61.3122 C   0  0  0  0  0  0  0  0  0  0  0  0
    9.5168   -0.2716   62.7065 C   0  0  0  0  0  0  0  0  0  0  0  0
    9.7150    0.8228   63.5179 N   0  0  0  0  0  0  0  0  0  0  0  0
    9.0649   -1.6136   66.0785 C   0  0  0  0  0  0  0  0  0  0  0  0
    8.8878   -2.2144   67.0554 N   0  0  0  0  0  0  0  0  0  0  0  0
   15.0206    0.8762   58.4748 C   0  0  0  0  0  0  0  0  0  0  0  0
   14.7942   -0.5014   57.8602 C   0  0  0  0  0  0  0  0  0  0  0  0
   15.1454    0.2493   55.4920 C   0  0  0  0  0  0  0  0  0  0  0  0
   13.2328   -1.1359   56.0024 C   0  0  0  0  0  0  0  0  0  0  0  0
   14.7609    0.2864   54.1516 C   0  0  0  0  0  0  0  0  0  0  0  0
   12.8483   -1.0988   54.6620 C   0  0  0  0  0  0  0  0  0  0  0  0
   14.3814   -0.4619   56.4173 C   0  0  0  0  0  0  0  0  0  0  0  0
   13.6124   -0.3877   53.7367 C   0  0  0  0  0  0  0  0  0  0  0  0
   13.2416   -0.3499   52.4500 F   0  0  0  0  0  0  0  0  0  0  0  0
 18 13  1  0
 18 19  3  0
  9 10  2  0
  9 11  1  0
 10 14  1  0
 11 15  2  0
 22 24  2  0
 22 26  1  0
 23 25  1  0
 23 26  2  0
 24 27  1  0
 25 27  2  0
 12 13  2  0
 12 17  1  0
 13 14  1  0
 14 16  2  0
 15 16  1  0
 15  1  1  0
 26 21  1  0
 16 17  1  0
 27 28  1  0
  1  6  1  0
  1  8  2  0
  2  4  1  0
  2  6  1  0
  3  5  1  0
  3  6  1  0
  4  7  1  0
  5  7  1  0
 21 20  1  0
 20  7  1  0
M  CHG  1   7   1
M  END
>  <minimizedAffinity>  (65) 
-9.04175

>  <CNNscore>  (65) 
0.4627009630

>  <CNNaffinity>  (65) 
6.5961503983

>  <CNN_VS>  (65) 
3.0520451069

>  <CNNaffinity_variance>  (65) 
0.0181145649

>  <salt_bridge_distance>  (65) 
(3.176465515317301, 3.176465515317301)

$$$$

     RDKit          3D

 20 22  0  0  0  0  0  0  0  0999 V2000
   13.8511   -1.8446   54.9385 C   0  0  0  0  0  0  0  0  0  0  0  0
   14.9721   -1.4763   54.1947 C   0  0  0  0  0  0  0  0  0  0  0  0
   13.6357   -1.2859   56.1985 C   0  0  0  0  0  0  0  0  0  0  0  0
   15.8779   -0.5495   54.7107 C   0  0  0  0  0  0  0  0  0  0  0  0
   14.5415   -0.3591   56.7145 C   0  0  0  0  0  0  0  0  0  0  0  0
   15.6625    0.0092   55.9706 C   0  0  0  0  0  0  0  0  0  0  0  0
   12.7556    0.3315   58.3803 C   0  0  0  0  0  0  0  0  0  0  0  0
   14.9822   -0.5566   59.2063 C   0  0  0  0  0  0  0  0  0  0  0  0
   12.4976    0.9212   59.7595 C   0  0  0  0  0  0  0  0  0  0  0  0
   14.6958    0.0445   60.5750 C   0  0  0  0  0  0  0  0  0  0  0  0
   14.2634    0.2180   58.0855 C   0  0  0  0  0  0  0  0  0  0  0  0
   13.2191    0.1102   60.7844 N   0  0  0  0  0  0  0  0  0  0  0  0
   16.8528    1.1925   56.5880 S   0  0  0  0  0  0  0  0  0  0  0  0
   19.3015   -1.4331   58.4877 C   0  0  0  0  0  0  0  0  0  0  0  0
   20.3711   -0.8291   56.4073 C   0  0  0  0  0  0  0  0  0  0  0  0
   18.2283   -0.5973   58.1786 C   0  0  0  0  0  0  0  0  0  0  0  0
   19.2980    0.0066   56.0982 C   0  0  0  0  0  0  0  0  0  0  0  0
   20.3729   -1.5490   57.6020 C   0  0  0  0  0  0  0  0  0  0  0  0
   18.2266    0.1225   56.9839 C   0  0  0  0  0  0  0  0  0  0  0  0
   21.5210   -2.4413   57.9340 C   0  0  0  0  0  0  0  0  0  0  0  0
  1  2  2  0
  1  3  1  0
  2  4  1  0
  3  5  2  0
 14 16  2  0
 14 18  1  0
 15 17  1  0
 15 18  2  0
  4  6  2  0
 16 19  1  0
 17 19  2  0
  5  6  1  0
  5 11  1  0
 18 20  1  0
 19 13  1  0
  6 13  1  0
  7  9  1  0
  7 11  1  0
  8 10  1  0
  8 11  1  0
  9 12  1  0
 10 12  1  0
M  CHG  1  12   1
M  END
>  <minimizedAffinity>  (66) 
-8.74240

>  <CNNscore>  (66) 
0.7835949659

>  <CNNaffinity>  (66) 
6.5964326859

>  <CNN_VS>  (66) 
5.1689314842

>  <CNNaffinity_variance>  (66) 
0.0701857880

>  <salt_bridge_distance>  (66) 
(3.2909462788079673, 3.2909462788079673)

$$$$

     RDKit          3D

 20 22  0  0  0  0  0  0  0  0999 V2000
    7.9199   -1.3302   58.9136 C   0  0  0  0  0  0  0  0  0  0  0  0
    7.2175   -2.4932   59.2289 C   0  0  0  0  0  0  0  0  0  0  0  0
    8.9323   -0.8759   59.7590 C   0  0  0  0  0  0  0  0  0  0  0  0
    7.5271   -3.2020   60.3897 C   0  0  0  0  0  0  0  0  0  0  0  0
    9.2419   -1.5847   60.9197 C   0  0  0  0  0  0  0  0  0  0  0  0
    8.5395   -2.7478   61.2351 C   0  0  0  0  0  0  0  0  0  0  0  0
   11.6769   -0.8797   61.0434 C   0  0  0  0  0  0  0  0  0  0  0  0
    9.9531    0.2574   62.5146 C   0  0  0  0  0  0  0  0  0  0  0  0
   12.7775   -0.3502   61.9516 C   0  0  0  0  0  0  0  0  0  0  0  0
   11.0757    0.7723   63.4040 C   0  0  0  0  0  0  0  0  0  0  0  0
   10.3481   -1.0510   61.8038 C   0  0  0  0  0  0  0  0  0  0  0  0
   12.3197    0.9185   62.5915 N   0  0  0  0  0  0  0  0  0  0  0  0
    8.8984   -3.6915   62.7112 S   0  0  0  0  0  0  0  0  0  0  0  0
    9.0470   -1.3345   66.0158 C   0  0  0  0  0  0  0  0  0  0  0  0
    6.9273   -0.9207   64.9328 C   0  0  0  0  0  0  0  0  0  0  0  0
    9.3748   -2.2568   65.0220 C   0  0  0  0  0  0  0  0  0  0  0  0
    7.2551   -1.8430   63.9390 C   0  0  0  0  0  0  0  0  0  0  0  0
    7.8232   -0.6665   65.9713 C   0  0  0  0  0  0  0  0  0  0  0  0
    8.4789   -2.5109   63.9836 C   0  0  0  0  0  0  0  0  0  0  0  0
    7.4724    0.3180   67.0353 C   0  0  0  0  0  0  0  0  0  0  0  0
  1  2  2  0
  1  3  1  0
  2  4  1  0
  3  5  2  0
 14 16  2  0
 14 18  1  0
 15 17  1  0
 15 18  2  0
  4  6  2  0
 16 19  1  0
 17 19  2  0
  5  6  1  0
  5 11  1  0
 18 20  1  0
 19 13  1  0
  6 13  1  0
  7  9  1  0
  7 11  1  0
  8 10  1  0
  8 11  1  0
  9 12  1  0
 10 12  1  0
M  CHG  1  12   1
M  END
>  <minimizedAffinity>  (67) 
-7.71242

>  <CNNscore>  (67) 
0.4479505420

>  <CNNaffinity>  (67) 
5.7052106857

>  <CNN_VS>  (67) 
2.5556521416

>  <CNNaffinity_variance>  (67) 
0.1896875203

>  <salt_bridge_distance>  (67) 
(2.8188758379893235, 2.8188758379893235)

$$$$

     RDKit          3D

 20 22  0  0  0  0  0  0  0  0999 V2000
    8.2236   -0.9035   58.5014 C   0  0  0  0  0  0  0  0  0  0  0  0
    7.4464   -2.0552   58.6228 C   0  0  0  0  0  0  0  0  0  0  0  0
    9.1601   -0.5870   59.4856 C   0  0  0  0  0  0  0  0  0  0  0  0
    7.6054   -2.8906   59.7285 C   0  0  0  0  0  0  0  0  0  0  0  0
    9.3191   -1.4223   60.5913 C   0  0  0  0  0  0  0  0  0  0  0  0
    8.5419   -2.5741   60.7128 C   0  0  0  0  0  0  0  0  0  0  0  0
   11.6804   -0.5870   61.0014 C   0  0  0  0  0  0  0  0  0  0  0  0
    9.8215    0.0302   62.6114 C   0  0  0  0  0  0  0  0  0  0  0  0
   12.7034   -0.2104   62.0636 C   0  0  0  0  0  0  0  0  0  0  0  0
   10.8681    0.3989   63.6531 C   0  0  0  0  0  0  0  0  0  0  0  0
   10.3480   -1.0354   61.6314 C   0  0  0  0  0  0  0  0  0  0  0  0
   12.1197    0.8291   62.9622 N   0  0  0  0  0  0  0  0  0  0  0  0
    8.7077   -3.6768   62.1110 S   0  0  0  0  0  0  0  0  0  0  0  0
    5.6911   -2.2512   64.4273 C   0  0  0  0  0  0  0  0  0  0  0  0
    4.8401   -4.1789   63.2454 C   0  0  0  0  0  0  0  0  0  0  0  0
    6.9292   -2.4172   63.8068 C   0  0  0  0  0  0  0  0  0  0  0  0
    6.0782   -4.3449   62.6249 C   0  0  0  0  0  0  0  0  0  0  0  0
    4.6465   -3.1320   64.1467 C   0  0  0  0  0  0  0  0  0  0  0  0
    7.1227   -3.4640   62.9055 C   0  0  0  0  0  0  0  0  0  0  0  0
    3.3234   -2.9551   64.8120 C   0  0  0  0  0  0  0  0  0  0  0  0
  1  2  2  0
  1  3  1  0
  2  4  1  0
  3  5  2  0
 14 16  2  0
 14 18  1  0
 15 17  1  0
 15 18  2  0
  4  6  2  0
 16 19  1  0
 17 19  2  0
  5  6  1  0
  5 11  1  0
 18 20  1  0
 19 13  1  0
  6 13  1  0
  7  9  1  0
  7 11  1  0
  8 10  1  0
  8 11  1  0
  9 12  1  0
 10 12  1  0
M  CHG  1  12   1
M  END
>  <minimizedAffinity>  (68) 
-8.13381

>  <CNNscore>  (68) 
0.3808391988

>  <CNNaffinity>  (68) 
5.4247107506

>  <CNN_VS>  (68) 
2.0659425259

>  <CNNaffinity_variance>  (68) 
0.1549077332

>  <salt_bridge_distance>  (68) 
(3.111702450428063, 3.111702450428063)

$$$$

     RDKit          3D

 20 22  0  0  0  0  0  0  0  0999 V2000
   14.1648   -1.9104   55.0983 C   0  0  0  0  0  0  0  0  0  0  0  0
   12.8148   -1.8069   54.7634 C   0  0  0  0  0  0  0  0  0  0  0  0
   14.6669   -1.2105   56.1956 C   0  0  0  0  0  0  0  0  0  0  0  0
   11.9667   -1.0035   55.5256 C   0  0  0  0  0  0  0  0  0  0  0  0
   13.8188   -0.4071   56.9578 C   0  0  0  0  0  0  0  0  0  0  0  0
   12.4687   -0.3036   56.6229 C   0  0  0  0  0  0  0  0  0  0  0  0
   14.5142   -0.5540   59.3942 C   0  0  0  0  0  0  0  0  0  0  0  0
   15.7735    0.9710   57.8077 C   0  0  0  0  0  0  0  0  0  0  0  0
   15.1046    0.2096   60.5710 C   0  0  0  0  0  0  0  0  0  0  0  0
   16.3478    1.7152   59.0047 C   0  0  0  0  0  0  0  0  0  0  0  0
   14.4114    0.3318   58.1380 C   0  0  0  0  0  0  0  0  0  0  0  0
   16.4221    0.7871   60.1718 N   0  0  0  0  0  0  0  0  0  0  0  0
   11.3411    0.7131   57.5679 S   0  0  0  0  0  0  0  0  0  0  0  0
    9.1649   -2.4255   58.9504 C   0  0  0  0  0  0  0  0  0  0  0  0
   10.2898   -1.4399   60.8477 C   0  0  0  0  0  0  0  0  0  0  0  0
    9.7453   -1.4738   58.1118 C   0  0  0  0  0  0  0  0  0  0  0  0
   10.8702   -0.4882   60.0092 C   0  0  0  0  0  0  0  0  0  0  0  0
    9.4371   -2.4085   60.3184 C   0  0  0  0  0  0  0  0  0  0  0  0
   10.5980   -0.5053   58.6413 C   0  0  0  0  0  0  0  0  0  0  0  0
    8.8147   -3.4251   61.2148 C   0  0  0  0  0  0  0  0  0  0  0  0
  1  2  2  0
  1  3  1  0
  2  4  1  0
  3  5  2  0
 14 16  2  0
 14 18  1  0
 15 17  1  0
 15 18  2  0
  4  6  2  0
 16 19  1  0
 17 19  2  0
  5  6  1  0
  5 11  1  0
 18 20  1  0
 19 13  1  0
  6 13  1  0
  7  9  1  0
  7 11  1  0
  8 10  1  0
  8 11  1  0
  9 12  1  0
 10 12  1  0
M  CHG  1  12   1
M  END
>  <minimizedAffinity>  (69) 
-8.07154

>  <CNNscore>  (69) 
0.2797032595

>  <CNNaffinity>  (69) 
5.6423521042

>  <CNN_VS>  (69) 
1.5781842470

>  <CNNaffinity_variance>  (69) 
0.1089093536

>  <salt_bridge_distance>  (69) 
(3.245295034353581, 3.245295034353581)

$$$$

     RDKit          3D

 21 23  0  0  0  0  0  0  0  0999 V2000
   13.3902   -4.7757   55.3423 C   0  0  0  0  0  0  0  0  0  0  0  0
   12.9497   -4.5168   54.0491 C   0  0  0  0  0  0  0  0  0  0  0  0
   13.9699   -3.7570   56.0999 C   0  0  0  0  0  0  0  0  0  0  0  0
   13.0970   -3.2413   53.5069 C   0  0  0  0  0  0  0  0  0  0  0  0
   15.9772    1.0967   53.7542 C   0  0  0  0  0  0  0  0  0  0  0  0
   17.0641    1.6807   54.4025 C   0  0  0  0  0  0  0  0  0  0  0  0
   16.6553    0.2879   56.3305 C   0  0  0  0  0  0  0  0  0  0  0  0
   14.1091   -2.4593   55.5769 C   0  0  0  0  0  0  0  0  0  0  0  0
   15.5437   -0.2984   55.7000 C   0  0  0  0  0  0  0  0  0  0  0  0
   13.6847   -2.2120   54.2575 C   0  0  0  0  0  0  0  0  0  0  0  0
   15.2202    0.1007   54.3893 C   0  0  0  0  0  0  0  0  0  0  0  0
   17.4059    1.2732   55.6872 C   0  0  0  0  0  0  0  0  0  0  0  0
   14.7363   -1.3601   56.3589 C   0  0  0  0  0  0  0  0  0  0  0  0
   14.4654   -1.2553   57.6746 C   0  0  0  0  0  0  0  0  0  0  0  0
   13.8468   -0.6057   53.4844 S   0  0  0  0  0  0  0  0  0  0  0  0
   18.7585    1.9805   56.4821 Cl  0  0  0  0  0  0  0  0  0  0  0  0
   15.0386   -0.1921   58.5573 C   0  0  0  0  0  0  0  0  0  0  0  0
   14.4724   -0.2347   59.9715 C   0  0  0  0  0  0  0  0  0  0  0  0
   13.2432    1.6677   58.9361 C   0  0  0  0  0  0  0  0  0  0  0  0
   12.0173   -0.0027   60.3172 C   0  0  0  0  0  0  0  0  0  0  0  0
   13.3311    0.7057   60.0953 N   0  0  0  0  0  0  0  0  0  0  0  0
  1  2  2  0
  1  3  1  0
  2  4  1  0
  3  8  2  0
  4 10  2  0
  5  6  1  0
  5 11  2  0
  6 12  2  0
  7  9  2  0
  7 12  1  0
  8 10  1  0
  8 13  1  0
  9 11  1  0
  9 13  1  0
 10 15  1  0
 11 15  1  0
 12 16  1  0
 13 14  2  0
 14 17  1  0
 19 21  1  0
 20 21  1  0
 17 18  1  0
 18 21  1  0
M  CHG  1  21   1
M  END
>  <minimizedAffinity>  (70) 
0.73021

>  <CNNscore>  (70) 
0.4716718793

>  <CNNaffinity>  (70) 
6.2442994118

>  <CNN_VS>  (70) 
2.9452605247

>  <CNNaffinity_variance>  (70) 
0.8185855746

>  <salt_bridge_distance>  (70) 
(3.077900614054975, 3.077900614054975)

$$$$

     RDKit          3D

 21 23  0  0  0  0  0  0  0  0999 V2000
    8.6395   -3.5237   62.2188 C   0  0  0  0  0  0  0  0  0  0  0  0
    7.4317   -3.7299   61.5615 C   0  0  0  0  0  0  0  0  0  0  0  0
    9.6042   -2.6837   61.6604 C   0  0  0  0  0  0  0  0  0  0  0  0
    7.1897   -3.1045   60.3396 C   0  0  0  0  0  0  0  0  0  0  0  0
    9.5306   -1.1227   56.1244 C   0  0  0  0  0  0  0  0  0  0  0  0
   10.7758   -0.8982   55.5397 C   0  0  0  0  0  0  0  0  0  0  0  0
   11.7868   -0.8357   57.7302 C   0  0  0  0  0  0  0  0  0  0  0  0
    9.3702   -2.0290   60.4383 C   0  0  0  0  0  0  0  0  0  0  0  0
   10.5361   -1.0418   58.3387 C   0  0  0  0  0  0  0  0  0  0  0  0
    8.1555   -2.2638   59.7663 C   0  0  0  0  0  0  0  0  0  0  0  0
    9.4035   -1.2073   57.5191 C   0  0  0  0  0  0  0  0  0  0  0  0
   11.9034   -0.7600   56.3414 C   0  0  0  0  0  0  0  0  0  0  0  0
   10.3877   -1.1402   59.8157 C   0  0  0  0  0  0  0  0  0  0  0  0
   11.1062   -0.3156   60.6024 C   0  0  0  0  0  0  0  0  0  0  0  0
    7.7714   -1.5077   58.1899 S   0  0  0  0  0  0  0  0  0  0  0  0
   13.4443   -0.5007   55.6203 Cl  0  0  0  0  0  0  0  0  0  0  0  0
   12.1538    0.6194   60.0861 C   0  0  0  0  0  0  0  0  0  0  0  0
   13.5067   -0.0579   59.9034 C   0  0  0  0  0  0  0  0  0  0  0  0
   14.2643   -0.6508   62.2005 C   0  0  0  0  0  0  0  0  0  0  0  0
   15.8518    0.4071   60.6001 C   0  0  0  0  0  0  0  0  0  0  0  0
   14.4098    0.2889   61.0288 N   0  0  0  0  0  0  0  0  0  0  0  0
  1  2  2  0
  1  3  1  0
  2  4  1  0
  3  8  2  0
  4 10  2  0
  5  6  1  0
  5 11  2  0
  6 12  2  0
  7  9  2  0
  7 12  1  0
  8 10  1  0
  8 13  1  0
  9 11  1  0
  9 13  1  0
 10 15  1  0
 11 15  1  0
 12 16  1  0
 13 14  2  0
 14 17  1  0
 19 21  1  0
 20 21  1  0
 17 18  1  0
 18 21  1  0
M  CHG  1  21   1
M  END
>  <minimizedAffinity>  (71) 
-7.26401

>  <CNNscore>  (71) 
0.3568678200

>  <CNNaffinity>  (71) 
6.0828299522

>  <CNN_VS>  (71) 
2.1707663536

>  <CNNaffinity_variance>  (71) 
0.0514163561

>  <salt_bridge_distance>  (71) 
(2.998375608558742, 2.998375608558742)

$$$$

     RDKit          3D

 31 35  0  0  0  0  0  0  0  0999 V2000
   12.8679   -0.0277   62.2316 C   0  0  0  0  0  0  0  0  0  0  0  0
   13.5268    0.9112   58.5859 C   0  0  0  0  0  0  0  0  0  0  0  0
   15.4776   -0.3658   59.4571 C   0  0  0  0  0  0  0  0  0  0  0  0
   12.7075    0.4813   59.7953 C   0  0  0  0  0  0  0  0  0  0  0  0
   14.6552   -0.7887   60.6677 C   0  0  0  0  0  0  0  0  0  0  0  0
   14.6044   -0.0513   58.3218 N   0  0  0  0  0  0  0  0  0  0  0  0
   13.6283    0.2720   60.9706 N   0  0  0  0  0  0  0  0  0  0  0  0
   16.9973    0.1981   55.5385 C   0  0  0  0  0  0  0  0  0  0  0  0
   16.4495    0.2439   56.8125 C   0  0  0  0  0  0  0  0  0  0  0  0
   16.2258   -0.2041   54.4464 C   0  0  0  0  0  0  0  0  0  0  0  0
   12.9302   -0.9331   55.8951 C   0  0  0  0  0  0  0  0  0  0  0  0
   12.5045   -1.2621   54.6300 C   0  0  0  0  0  0  0  0  0  0  0  0
   14.3057   -0.5249   55.9330 C   0  0  0  0  0  0  0  0  0  0  0  0
   15.1144   -0.1128   57.0198 C   0  0  0  0  0  0  0  0  0  0  0  0
   14.8802   -0.5631   54.6588 C   0  0  0  0  0  0  0  0  0  0  0  0
   13.7436   -1.0872   53.4728 S   0  0  0  0  0  0  0  0  0  0  0  0
   11.4785    0.5844   62.1332 C   0  0  0  0  0  0  0  0  0  0  0  0
   10.6195    0.1900   63.3323 C   0  0  0  0  0  0  0  0  0  0  0  0
   11.3133    0.5065   64.6495 C   0  0  0  0  0  0  0  0  0  0  0  0
   10.5611   -0.0606   65.7131 O   0  0  0  0  0  0  0  0  0  0  0  0
    7.3336   -1.7476   65.2520 C   0  0  0  0  0  0  0  0  0  0  0  0
    8.6968   -1.5446   65.4771 C   0  0  0  0  0  0  0  0  0  0  0  0
    8.3873    0.8453   65.2790 C   0  0  0  0  0  0  0  0  0  0  0  0
    6.4903   -0.6535   65.0389 C   0  0  0  0  0  0  0  0  0  0  0  0
    7.0248    0.6402   65.0539 C   0  0  0  0  0  0  0  0  0  0  0  0
    9.2220   -0.2517   65.4906 C   0  0  0  0  0  0  0  0  0  0  0  0
    5.0591   -0.8243   64.8000 C   0  0  0  0  0  0  0  0  0  0  0  0
    4.2703    0.2373   64.5984 C   0  0  0  0  0  0  0  0  0  0  0  0
    4.8194    1.6209   64.6105 C   0  0  0  0  0  0  0  0  0  0  0  0
    6.1762    1.7416   64.8396 N   0  0  0  0  0  0  0  0  0  0  0  0
    4.0721    2.5784   64.4210 O   0  0  0  0  0  0  0  0  0  0  0  0
  8  9  2  0
  8 10  1  0
 21 22  2  0
 21 24  1  0
  9 14  1  0
 22 26  1  0
 10 15  2  0
 11 12  2  0
 11 13  1  0
 23 25  1  0
 23 26  2  0
 12 16  1  0
 13 14  2  0
 13 15  1  0
 24 25  2  0
 24 27  1  0
 14  6  1  0
 25 30  1  0
 26 20  1  0
 15 16  1  0
 27 28  2  0
 28 29  1  0
 29 30  1  0
 29 31  2  0
  2  4  1  0
  2  6  1  0
  3  5  1  0
  3  6  1  0
  4  7  1  0
  5  7  1  0
 17 18  1  0
 17  1  1  0
 18 19  1  0
  1  7  1  0
 19 20  1  0
M  CHG  1   7   1
M  END
>  <minimizedAffinity>  (72) 
-9.75263

>  <CNNscore>  (72) 
0.7883344889

>  <CNNaffinity>  (72) 
7.1977586746

>  <CNN_VS>  (72) 
5.6742415428

>  <CNNaffinity_variance>  (72) 
0.0316726230

>  <salt_bridge_distance>  (72) 
(3.0123671174011983, 3.0123671174011983)

$$$$

     RDKit          3D

 31 35  0  0  0  0  0  0  0  0999 V2000
   12.3508    0.0583   61.8743 C   0  0  0  0  0  0  0  0  0  0  0  0
   14.2744    1.2209   58.7831 C   0  0  0  0  0  0  0  0  0  0  0  0
   15.7310   -0.2908   60.1206 C   0  0  0  0  0  0  0  0  0  0  0  0
   13.0664    0.7715   59.5940 C   0  0  0  0  0  0  0  0  0  0  0  0
   14.5200   -0.7331   60.9322 C   0  0  0  0  0  0  0  0  0  0  0  0
   15.3204    0.1897   58.7974 N   0  0  0  0  0  0  0  0  0  0  0  0
   13.5139    0.3879   60.9816 N   0  0  0  0  0  0  0  0  0  0  0  0
   16.7343    0.7551   55.4484 C   0  0  0  0  0  0  0  0  0  0  0  0
   15.8532    0.7370   56.5202 C   0  0  0  0  0  0  0  0  0  0  0  0
   18.0198    0.2252   55.5752 C   0  0  0  0  0  0  0  0  0  0  0  0
   18.1598   -0.9705   59.0454 C   0  0  0  0  0  0  0  0  0  0  0  0
   19.4490   -1.3788   58.7980 C   0  0  0  0  0  0  0  0  0  0  0  0
   17.5389   -0.3592   57.9048 C   0  0  0  0  0  0  0  0  0  0  0  0
   16.2422    0.1863   57.7442 C   0  0  0  0  0  0  0  0  0  0  0  0
   18.4088   -0.3293   56.8105 C   0  0  0  0  0  0  0  0  0  0  0  0
   19.9326   -1.0362   57.1999 S   0  0  0  0  0  0  0  0  0  0  0  0
   11.1184   -0.1879   61.0166 C   0  0  0  0  0  0  0  0  0  0  0  0
   10.4560   -1.5155   61.3771 C   0  0  0  0  0  0  0  0  0  0  0  0
    9.0783   -1.6468   60.7436 C   0  0  0  0  0  0  0  0  0  0  0  0
    8.8442   -3.0130   60.4317 O   0  0  0  0  0  0  0  0  0  0  0  0
    5.3929   -4.2064   60.0587 C   0  0  0  0  0  0  0  0  0  0  0  0
    6.6532   -3.6929   59.7457 C   0  0  0  0  0  0  0  0  0  0  0  0
    7.3098   -3.8528   62.0673 C   0  0  0  0  0  0  0  0  0  0  0  0
    5.0851   -4.5455   61.3793 C   0  0  0  0  0  0  0  0  0  0  0  0
    6.0492   -4.3658   62.3782 C   0  0  0  0  0  0  0  0  0  0  0  0
    7.6090   -3.5168   60.7472 C   0  0  0  0  0  0  0  0  0  0  0  0
    3.7782   -5.0853   61.7471 C   0  0  0  0  0  0  0  0  0  0  0  0
    3.5052   -5.4032   63.0177 C   0  0  0  0  0  0  0  0  0  0  0  0
    4.5166   -5.2194   64.0942 C   0  0  0  0  0  0  0  0  0  0  0  0
    5.7398   -4.7072   63.7074 N   0  0  0  0  0  0  0  0  0  0  0  0
    4.2387   -5.5186   65.2537 O   0  0  0  0  0  0  0  0  0  0  0  0
  8  9  2  0
  8 10  1  0
 21 22  2  0
 21 24  1  0
  9 14  1  0
 22 26  1  0
 10 15  2  0
 11 12  2  0
 11 13  1  0
 23 25  1  0
 23 26  2  0
 12 16  1  0
 13 14  2  0
 13 15  1  0
 24 25  2  0
 24 27  1  0
 14  6  1  0
 25 30  1  0
 26 20  1  0
 15 16  1  0
 27 28  2  0
 28 29  1  0
 29 30  1  0
 29 31  2  0
  2  4  1  0
  2  6  1  0
  3  5  1  0
  3  6  1  0
  4  7  1  0
  5  7  1  0
 17 18  1  0
 17  1  1  0
 18 19  1  0
  1  7  1  0
 19 20  1  0
M  CHG  1   7   1
M  END
>  <minimizedAffinity>  (73) 
-9.03805

>  <CNNscore>  (73) 
0.7708721161

>  <CNNaffinity>  (73) 
6.7548623085

>  <CNN_VS>  (73) 
5.2071352005

>  <CNNaffinity_variance>  (73) 
0.0489299111

>  <salt_bridge_distance>  (73) 
(2.914266182077402, 2.914266182077402)

$$$$

     RDKit          3D

 31 35  0  0  0  0  0  0  0  0999 V2000
   13.2662   -0.1437   62.0334 C   0  0  0  0  0  0  0  0  0  0  0  0
   14.6321    0.2944   58.4909 C   0  0  0  0  0  0  0  0  0  0  0  0
   16.4674    0.7049   60.1214 C   0  0  0  0  0  0  0  0  0  0  0  0
   13.7853   -0.3152   59.6000 C   0  0  0  0  0  0  0  0  0  0  0  0
   15.6141    0.0988   61.2284 C   0  0  0  0  0  0  0  0  0  0  0  0
   16.0614    0.1859   58.8114 N   0  0  0  0  0  0  0  0  0  0  0  0
   14.1567    0.3207   60.9155 N   0  0  0  0  0  0  0  0  0  0  0  0
   17.4714    0.9420   55.4985 C   0  0  0  0  0  0  0  0  0  0  0  0
   16.6034    0.8899   56.5798 C   0  0  0  0  0  0  0  0  0  0  0  0
   18.7201    0.3202   55.5581 C   0  0  0  0  0  0  0  0  0  0  0  0
   18.8198   -1.1745   58.9117 C   0  0  0  0  0  0  0  0  0  0  0  0
   20.0760   -1.6436   58.6087 C   0  0  0  0  0  0  0  0  0  0  0  0
   18.2280   -0.4286   57.8377 C   0  0  0  0  0  0  0  0  0  0  0  0
   16.9688    0.2123   57.7460 C   0  0  0  0  0  0  0  0  0  0  0  0
   19.0854   -0.3622   56.7352 C   0  0  0  0  0  0  0  0  0  0  0  0
   20.5631   -1.1980   57.0373 S   0  0  0  0  0  0  0  0  0  0  0  0
   12.0191   -0.7852   61.4435 C   0  0  0  0  0  0  0  0  0  0  0  0
   10.7934    0.0994   61.6588 C   0  0  0  0  0  0  0  0  0  0  0  0
    9.6093   -0.3678   60.8244 C   0  0  0  0  0  0  0  0  0  0  0  0
    9.3144    0.6232   59.8498 O   0  0  0  0  0  0  0  0  0  0  0  0
   11.6807    2.0482   57.4323 C   0  0  0  0  0  0  0  0  0  0  0  0
   10.8012    1.9390   58.5114 C   0  0  0  0  0  0  0  0  0  0  0  0
   10.4262   -0.3915   57.9873 C   0  0  0  0  0  0  0  0  0  0  0  0
   11.9369    0.9365   56.6247 C   0  0  0  0  0  0  0  0  0  0  0  0
   11.3057   -0.2802   56.9088 C   0  0  0  0  0  0  0  0  0  0  0  0
   10.1758    0.7225   58.7882 C   0  0  0  0  0  0  0  0  0  0  0  0
   12.8503    1.0102   55.4868 C   0  0  0  0  0  0  0  0  0  0  0  0
   13.0810   -0.0666   54.7271 C   0  0  0  0  0  0  0  0  0  0  0  0
   12.4196   -1.3692   55.0127 C   0  0  0  0  0  0  0  0  0  0  0  0
   11.5635   -1.3993   56.0963 N   0  0  0  0  0  0  0  0  0  0  0  0
   12.6486   -2.3425   54.2975 O   0  0  0  0  0  0  0  0  0  0  0  0
  8  9  2  0
  8 10  1  0
 21 22  2  0
 21 24  1  0
  9 14  1  0
 22 26  1  0
 10 15  2  0
 11 12  2  0
 11 13  1  0
 23 25  1  0
 23 26  2  0
 12 16  1  0
 13 14  2  0
 13 15  1  0
 24 25  2  0
 24 27  1  0
 14  6  1  0
 25 30  1  0
 26 20  1  0
 15 16  1  0
 27 28  2  0
 28 29  1  0
 29 30  1  0
 29 31  2  0
  2  4  1  0
  2  6  1  0
  3  5  1  0
  3  6  1  0
  4  7  1  0
  5  7  1  0
 17 18  1  0
 17  1  1  0
 18 19  1  0
  1  7  1  0
 19 20  1  0
M  CHG  1   7   1
M  END
>  <minimizedAffinity>  (74) 
-8.92237

>  <CNNscore>  (74) 
0.6730930805

>  <CNNaffinity>  (74) 
7.7539429665

>  <CNN_VS>  (74) 
5.2191252708

>  <CNNaffinity_variance>  (74) 
0.0975623354

>  <salt_bridge_distance>  (74) 
(2.9750998016873305, 2.9750998016873305)

$$$$

     RDKit          3D

 31 35  0  0  0  0  0  0  0  0999 V2000
   12.7046   -0.1757   62.4858 C   0  0  0  0  0  0  0  0  0  0  0  0
   13.8772    0.4915   58.9099 C   0  0  0  0  0  0  0  0  0  0  0  0
   15.8632    0.3953   60.4072 C   0  0  0  0  0  0  0  0  0  0  0  0
   13.0189   -0.1139   60.0123 C   0  0  0  0  0  0  0  0  0  0  0  0
   14.9989   -0.2054   61.5086 C   0  0  0  0  0  0  0  0  0  0  0  0
   15.2869    0.1189   59.0875 N   0  0  0  0  0  0  0  0  0  0  0  0
   13.5811    0.2818   61.3540 N   0  0  0  0  0  0  0  0  0  0  0  0
   16.3759    0.7060   55.6228 C   0  0  0  0  0  0  0  0  0  0  0  0
   15.5953    0.6668   56.7693 C   0  0  0  0  0  0  0  0  0  0  0  0
   17.6845    0.2196   55.6361 C   0  0  0  0  0  0  0  0  0  0  0  0
   18.1742   -0.9455   59.0849 C   0  0  0  0  0  0  0  0  0  0  0  0
   19.4491   -1.3130   58.7247 C   0  0  0  0  0  0  0  0  0  0  0  0
   17.4337   -0.3633   58.0020 C   0  0  0  0  0  0  0  0  0  0  0  0
   16.1103    0.1381   57.9559 C   0  0  0  0  0  0  0  0  0  0  0  0
   18.2008   -0.3128   56.8340 C   0  0  0  0  0  0  0  0  0  0  0  0
   19.7761   -0.9664   57.0882 S   0  0  0  0  0  0  0  0  0  0  0  0
   11.6610    0.8938   62.7716 C   0  0  0  0  0  0  0  0  0  0  0  0
   11.0941    0.7438   64.1814 C   0  0  0  0  0  0  0  0  0  0  0  0
    9.6476    0.2710   64.1584 C   0  0  0  0  0  0  0  0  0  0  0  0
    9.6288   -1.1492   64.1219 O   0  0  0  0  0  0  0  0  0  0  0  0
    7.6832   -3.5026   62.0844 C   0  0  0  0  0  0  0  0  0  0  0  0
    8.2918   -2.9029   63.1890 C   0  0  0  0  0  0  0  0  0  0  0  0
    9.1743   -1.1548   61.7707 C   0  0  0  0  0  0  0  0  0  0  0  0
    7.8179   -2.9302   60.8164 C   0  0  0  0  0  0  0  0  0  0  0  0
    8.5653   -1.7559   60.6677 C   0  0  0  0  0  0  0  0  0  0  0  0
    9.0352   -1.7322   63.0325 C   0  0  0  0  0  0  0  0  0  0  0  0
    7.1967   -3.5270   59.6364 C   0  0  0  0  0  0  0  0  0  0  0  0
    7.3387   -2.9620   58.4320 C   0  0  0  0  0  0  0  0  0  0  0  0
    8.1294   -1.7135   58.2530 C   0  0  0  0  0  0  0  0  0  0  0  0
    8.7009   -1.1795   59.3916 N   0  0  0  0  0  0  0  0  0  0  0  0
    8.2448   -1.2163   57.1347 O   0  0  0  0  0  0  0  0  0  0  0  0
  8  9  2  0
  8 10  1  0
 21 22  2  0
 21 24  1  0
  9 14  1  0
 22 26  1  0
 10 15  2  0
 11 12  2  0
 11 13  1  0
 23 25  1  0
 23 26  2  0
 12 16  1  0
 13 14  2  0
 13 15  1  0
 24 25  2  0
 24 27  1  0
 14  6  1  0
 25 30  1  0
 26 20  1  0
 15 16  1  0
 27 28  2  0
 28 29  1  0
 29 30  1  0
 29 31  2  0
  2  4  1  0
  2  6  1  0
  3  5  1  0
  3  6  1  0
  4  7  1  0
  5  7  1  0
 17 18  1  0
 17  1  1  0
 18 19  1  0
  1  7  1  0
 19 20  1  0
M  CHG  1   7   1
M  END
>  <minimizedAffinity>  (75) 
-9.22698

>  <CNNscore>  (75) 
0.5819647908

>  <CNNaffinity>  (75) 
7.1796770096

>  <CNN_VS>  (75) 
4.1783194542

>  <CNNaffinity_variance>  (75) 
0.0337098502

>  <salt_bridge_distance>  (75) 
(2.9121179320212978, 2.9121179320212978)

$$$$

     RDKit          3D

 31 35  0  0  0  0  0  0  0  0999 V2000
   12.3568   -0.0713   62.0319 C   0  0  0  0  0  0  0  0  0  0  0  0
   13.9030    0.7861   58.6436 C   0  0  0  0  0  0  0  0  0  0  0  0
   15.7237    0.2141   60.2415 C   0  0  0  0  0  0  0  0  0  0  0  0
   12.8767    0.2083   59.6087 C   0  0  0  0  0  0  0  0  0  0  0  0
   14.6923   -0.3581   61.2057 C   0  0  0  0  0  0  0  0  0  0  0  0
   15.2215    0.1776   58.8643 N   0  0  0  0  0  0  0  0  0  0  0  0
   13.3811    0.3616   61.0211 N   0  0  0  0  0  0  0  0  0  0  0  0
   16.5787    0.7697   55.4964 C   0  0  0  0  0  0  0  0  0  0  0  0
   15.7137    0.7374   56.5809 C   0  0  0  0  0  0  0  0  0  0  0  0
   17.8727    0.2564   55.6030 C   0  0  0  0  0  0  0  0  0  0  0  0
   18.0792   -0.9458   59.0675 C   0  0  0  0  0  0  0  0  0  0  0  0
   19.3699   -1.3366   58.8002 C   0  0  0  0  0  0  0  0  0  0  0  0
   17.4337   -0.3399   57.9378 C   0  0  0  0  0  0  0  0  0  0  0  0
   16.1277    0.1889   57.7976 C   0  0  0  0  0  0  0  0  0  0  0  0
   18.2870   -0.2959   56.8309 C   0  0  0  0  0  0  0  0  0  0  0  0
   19.8255   -0.9837   57.1961 S   0  0  0  0  0  0  0  0  0  0  0  0
   11.0652    0.6965   61.7930 C   0  0  0  0  0  0  0  0  0  0  0  0
   10.4531    1.1634   63.1115 C   0  0  0  0  0  0  0  0  0  0  0  0
   10.7526    0.1930   64.2452 C   0  0  0  0  0  0  0  0  0  0  0  0
    9.7958    0.3838   65.2782 O   0  0  0  0  0  0  0  0  0  0  0  0
    6.1463   -0.0081   65.2365 C   0  0  0  0  0  0  0  0  0  0  0  0
    7.4120    0.5484   65.4320 C   0  0  0  0  0  0  0  0  0  0  0  0
    8.4426   -1.4482   64.5388 C   0  0  0  0  0  0  0  0  0  0  0  0
    6.0231   -1.2889   64.6907 C   0  0  0  0  0  0  0  0  0  0  0  0
    7.1763   -2.0029   64.3443 C   0  0  0  0  0  0  0  0  0  0  0  0
    8.5569   -0.1697   65.0840 C   0  0  0  0  0  0  0  0  0  0  0  0
    4.7170   -1.9057   64.4707 C   0  0  0  0  0  0  0  0  0  0  0  0
    4.6225   -3.1332   63.9469 C   0  0  0  0  0  0  0  0  0  0  0  0
    5.8367   -3.9085   63.5721 C   0  0  0  0  0  0  0  0  0  0  0  0
    7.0526   -3.2920   63.7948 N   0  0  0  0  0  0  0  0  0  0  0  0
    5.7210   -5.0350   63.0937 O   0  0  0  0  0  0  0  0  0  0  0  0
  8  9  2  0
  8 10  1  0
 21 22  2  0
 21 24  1  0
  9 14  1  0
 22 26  1  0
 10 15  2  0
 11 12  2  0
 11 13  1  0
 23 25  1  0
 23 26  2  0
 12 16  1  0
 13 14  2  0
 13 15  1  0
 24 25  2  0
 24 27  1  0
 14  6  1  0
 25 30  1  0
 26 20  1  0
 15 16  1  0
 27 28  2  0
 28 29  1  0
 29 30  1  0
 29 31  2  0
  2  4  1  0
  2  6  1  0
  3  5  1  0
  3  6  1  0
  4  7  1  0
  5  7  1  0
 17 18  1  0
 17  1  1  0
 18 19  1  0
  1  7  1  0
 19 20  1  0
M  CHG  1   7   1
M  END
>  <minimizedAffinity>  (76) 
-10.10887

>  <CNNscore>  (76) 
0.5778839588

>  <CNNaffinity>  (76) 
6.9173250198

>  <CNN_VS>  (76) 
3.9974112511

>  <CNNaffinity_variance>  (76) 
0.0939854980

>  <salt_bridge_distance>  (76) 
(2.9491770682683676, 2.9491770682683676)

$$$$

     RDKit          3D

 31 35  0  0  0  0  0  0  0  0999 V2000
   14.4442    0.4718   59.7175 C   0  0  0  0  0  0  0  0  0  0  0  0
   12.3905   -0.1721   62.8758 C   0  0  0  0  0  0  0  0  0  0  0  0
   10.8858    0.7062   61.0982 C   0  0  0  0  0  0  0  0  0  0  0  0
   13.4730   -0.4210   61.8342 C   0  0  0  0  0  0  0  0  0  0  0  0
   11.9741    0.4601   60.0609 C   0  0  0  0  0  0  0  0  0  0  0  0
   11.0604   -0.1809   62.2526 N   0  0  0  0  0  0  0  0  0  0  0  0
   13.3261    0.5794   60.7159 N   0  0  0  0  0  0  0  0  0  0  0  0
    8.6201    0.1132   64.9901 C   0  0  0  0  0  0  0  0  0  0  0  0
    9.6973    0.3669   64.1529 C   0  0  0  0  0  0  0  0  0  0  0  0
    7.7869   -0.9842   64.7646 C   0  0  0  0  0  0  0  0  0  0  0  0
    9.2061   -2.5913   61.7823 C   0  0  0  0  0  0  0  0  0  0  0  0
    8.2070   -3.5309   61.8768 C   0  0  0  0  0  0  0  0  0  0  0  0
    9.1371   -1.5967   62.8148 C   0  0  0  0  0  0  0  0  0  0  0  0
    9.9631   -0.4755   63.0702 C   0  0  0  0  0  0  0  0  0  0  0  0
    8.0577   -1.8315   63.6722 C   0  0  0  0  0  0  0  0  0  0  0  0
    7.1745   -3.2353   63.2003 S   0  0  0  0  0  0  0  0  0  0  0  0
   15.5331   -0.4274   60.2837 C   0  0  0  0  0  0  0  0  0  0  0  0
   16.8163   -0.3175   59.4635 C   0  0  0  0  0  0  0  0  0  0  0  0
   16.8227    0.9318   58.5942 C   0  0  0  0  0  0  0  0  0  0  0  0
   17.3546    0.6015   57.3188 O   0  0  0  0  0  0  0  0  0  0  0  0
   15.8846    0.3588   53.9640 C   0  0  0  0  0  0  0  0  0  0  0  0
   16.7981    0.6098   54.9899 C   0  0  0  0  0  0  0  0  0  0  0  0
   15.1907   -0.1552   56.6263 C   0  0  0  0  0  0  0  0  0  0  0  0
   14.6184   -0.1507   54.2653 C   0  0  0  0  0  0  0  0  0  0  0  0
   14.2789   -0.4052   55.5993 C   0  0  0  0  0  0  0  0  0  0  0  0
   16.4521    0.3533   56.3174 C   0  0  0  0  0  0  0  0  0  0  0  0
   13.6350   -0.4264   53.2205 C   0  0  0  0  0  0  0  0  0  0  0  0
   12.4286   -0.9142   53.5317 C   0  0  0  0  0  0  0  0  0  0  0  0
   12.0484   -1.1913   54.9439 C   0  0  0  0  0  0  0  0  0  0  0  0
   13.0046   -0.9181   55.9027 N   0  0  0  0  0  0  0  0  0  0  0  0
   10.9327   -1.6382   55.2018 O   0  0  0  0  0  0  0  0  0  0  0  0
  8  9  2  0
  8 10  1  0
 21 22  2  0
 21 24  1  0
  9 14  1  0
 22 26  1  0
 10 15  2  0
 11 12  2  0
 11 13  1  0
 23 25  1  0
 23 26  2  0
 12 16  1  0
 13 14  2  0
 13 15  1  0
 24 25  2  0
 24 27  1  0
 14  6  1  0
 25 30  1  0
 26 20  1  0
 15 16  1  0
 27 28  2  0
 28 29  1  0
 29 30  1  0
 29 31  2  0
  2  4  1  0
  2  6  1  0
  3  5  1  0
  3  6  1  0
  4  7  1  0
  5  7  1  0
 17 18  1  0
 17  1  1  0
 18 19  1  0
  1  7  1  0
 19 20  1  0
M  CHG  1   7   1
M  END
>  <minimizedAffinity>  (77) 
-9.27483

>  <CNNscore>  (77) 
0.4794861674

>  <CNNaffinity>  (77) 
7.1923370361

>  <CNN_VS>  (77) 
3.4486260414

>  <CNNaffinity_variance>  (77) 
0.0154714137

>  <salt_bridge_distance>  (77) 
(2.8709978021586853, 2.8709978021586853)

$$$$

     RDKit          3D

 31 35  0  0  0  0  0  0  0  0999 V2000
   12.2184    0.0256   62.3538 C   0  0  0  0  0  0  0  0  0  0  0  0
   13.4103    1.0953   58.8837 C   0  0  0  0  0  0  0  0  0  0  0  0
   15.1767   -0.2953   59.9520 C   0  0  0  0  0  0  0  0  0  0  0  0
   12.4164    0.6463   59.9463 C   0  0  0  0  0  0  0  0  0  0  0  0
   14.1797   -0.7374   61.0158 C   0  0  0  0  0  0  0  0  0  0  0  0
   14.4813    0.1029   58.7240 N   0  0  0  0  0  0  0  0  0  0  0  0
   13.1568    0.3493   61.2256 N   0  0  0  0  0  0  0  0  0  0  0  0
   17.1312    0.6944   56.2414 C   0  0  0  0  0  0  0  0  0  0  0  0
   16.4172    0.6947   57.4312 C   0  0  0  0  0  0  0  0  0  0  0  0
   16.6121    0.0795   55.1004 C   0  0  0  0  0  0  0  0  0  0  0  0
   13.3642   -1.2435   56.1924 C   0  0  0  0  0  0  0  0  0  0  0  0
   13.1893   -1.7239   54.9162 C   0  0  0  0  0  0  0  0  0  0  0  0
   14.6115   -0.5542   56.3636 C   0  0  0  0  0  0  0  0  0  0  0  0
   15.1655    0.0778   57.5032 C   0  0  0  0  0  0  0  0  0  0  0  0
   15.3498   -0.5415   55.1763 C   0  0  0  0  0  0  0  0  0  0  0  0
   14.5137   -1.3573   53.9079 S   0  0  0  0  0  0  0  0  0  0  0  0
   10.8383    0.5770   62.0279 C   0  0  0  0  0  0  0  0  0  0  0  0
   10.1316    1.0667   63.2898 C   0  0  0  0  0  0  0  0  0  0  0  0
   10.5574    0.2729   64.5166 C   0  0  0  0  0  0  0  0  0  0  0  0
    9.5545    0.3973   65.5153 O   0  0  0  0  0  0  0  0  0  0  0  0
    5.9213   -0.0099   65.1852 C   0  0  0  0  0  0  0  0  0  0  0  0
    7.1661    0.5594   65.4613 C   0  0  0  0  0  0  0  0  0  0  0  0
    8.2682   -1.4707   64.7469 C   0  0  0  0  0  0  0  0  0  0  0  0
    5.8445   -1.3141   64.6883 C   0  0  0  0  0  0  0  0  0  0  0  0
    7.0227   -2.0383   64.4717 C   0  0  0  0  0  0  0  0  0  0  0  0
    8.3363   -0.1689   65.2426 C   0  0  0  0  0  0  0  0  0  0  0  0
    4.5615   -1.9450   64.3872 C   0  0  0  0  0  0  0  0  0  0  0  0
    4.5114   -3.1947   63.9121 C   0  0  0  0  0  0  0  0  0  0  0  0
    5.7528   -3.9812   63.6751 C   0  0  0  0  0  0  0  0  0  0  0  0
    6.9457   -3.3508   63.9715 N   0  0  0  0  0  0  0  0  0  0  0  0
    5.6778   -5.1281   63.2391 O   0  0  0  0  0  0  0  0  0  0  0  0
  8  9  2  0
  8 10  1  0
 21 22  2  0
 21 24  1  0
  9 14  1  0
 22 26  1  0
 10 15  2  0
 11 12  2  0
 11 13  1  0
 23 25  1  0
 23 26  2  0
 12 16  1  0
 13 14  2  0
 13 15  1  0
 24 25  2  0
 24 27  1  0
 14  6  1  0
 25 30  1  0
 26 20  1  0
 15 16  1  0
 27 28  2  0
 28 29  1  0
 29 30  1  0
 29 31  2  0
  2  4  1  0
  2  6  1  0
  3  5  1  0
  3  6  1  0
  4  7  1  0
  5  7  1  0
 17 18  1  0
 17  1  1  0
 18 19  1  0
  1  7  1  0
 19 20  1  0
M  CHG  1   7   1
M  END
>  <minimizedAffinity>  (78) 
-10.08088

>  <CNNscore>  (78) 
0.4564294219

>  <CNNaffinity>  (78) 
6.7827119827

>  <CNN_VS>  (78) 
3.0958292484

>  <CNNaffinity_variance>  (78) 
0.0534402654

>  <salt_bridge_distance>  (78) 
(2.9577572060600237, 2.9577572060600237)

$$$$

     RDKit          3D

 31 35  0  0  0  0  0  0  0  0999 V2000
   11.7950    0.0165   62.3914 C   0  0  0  0  0  0  0  0  0  0  0  0
   13.2403    1.2529   59.0764 C   0  0  0  0  0  0  0  0  0  0  0  0
   14.9202   -0.2011   60.1985 C   0  0  0  0  0  0  0  0  0  0  0  0
   12.1702    0.7570   60.0395 C   0  0  0  0  0  0  0  0  0  0  0  0
   13.8470   -0.6901   61.1629 C   0  0  0  0  0  0  0  0  0  0  0  0
   14.3176    0.2631   58.9449 N   0  0  0  0  0  0  0  0  0  0  0  0
   12.8143    0.3910   61.3526 N   0  0  0  0  0  0  0  0  0  0  0  0
   17.1079    1.0325   56.6739 C   0  0  0  0  0  0  0  0  0  0  0  0
   16.3102    0.9745   57.8078 C   0  0  0  0  0  0  0  0  0  0  0  0
   16.7048    0.4153   55.4882 C   0  0  0  0  0  0  0  0  0  0  0  0
   13.4569   -1.0867   56.3168 C   0  0  0  0  0  0  0  0  0  0  0  0
   13.3998   -1.5501   55.0238 C   0  0  0  0  0  0  0  0  0  0  0  0
   14.6521   -0.3405   56.5904 C   0  0  0  0  0  0  0  0  0  0  0  0
   15.0892    0.2956   57.7776 C   0  0  0  0  0  0  0  0  0  0  0  0
   15.4733   -0.2683   55.4610 C   0  0  0  0  0  0  0  0  0  0  0  0
   14.7739   -1.0992   54.1217 S   0  0  0  0  0  0  0  0  0  0  0  0
   10.5505    0.8704   62.1991 C   0  0  0  0  0  0  0  0  0  0  0  0
    9.8472    1.1221   63.5308 C   0  0  0  0  0  0  0  0  0  0  0  0
   10.5292    0.3855   64.6748 C   0  0  0  0  0  0  0  0  0  0  0  0
    9.5336   -0.1348   65.5447 O   0  0  0  0  0  0  0  0  0  0  0  0
    8.2053   -3.0376   63.7324 C   0  0  0  0  0  0  0  0  0  0  0  0
    9.1074   -2.1272   64.2868 C   0  0  0  0  0  0  0  0  0  0  0  0
    7.2713   -0.8238   65.1679 C   0  0  0  0  0  0  0  0  0  0  0  0
    6.8303   -2.8446   63.8933 C   0  0  0  0  0  0  0  0  0  0  0  0
    6.3710   -1.7349   64.6126 C   0  0  0  0  0  0  0  0  0  0  0  0
    8.6416   -1.0235   65.0027 C   0  0  0  0  0  0  0  0  0  0  0  0
    5.8548   -3.7741   63.3286 C   0  0  0  0  0  0  0  0  0  0  0  0
    4.5431   -3.5698   63.4950 C   0  0  0  0  0  0  0  0  0  0  0  0
    4.0348   -2.3961   64.2564 C   0  0  0  0  0  0  0  0  0  0  0  0
    4.9872   -1.5405   64.7749 N   0  0  0  0  0  0  0  0  0  0  0  0
    2.8242   -2.2318   64.3929 O   0  0  0  0  0  0  0  0  0  0  0  0
  8  9  2  0
  8 10  1  0
 21 22  2  0
 21 24  1  0
  9 14  1  0
 22 26  1  0
 10 15  2  0
 11 12  2  0
 11 13  1  0
 23 25  1  0
 23 26  2  0
 12 16  1  0
 13 14  2  0
 13 15  1  0
 24 25  2  0
 24 27  1  0
 14  6  1  0
 25 30  1  0
 26 20  1  0
 15 16  1  0
 27 28  2  0
 28 29  1  0
 29 30  1  0
 29 31  2  0
  2  4  1  0
  2  6  1  0
  3  5  1  0
  3  6  1  0
  4  7  1  0
  5  7  1  0
 17 18  1  0
 17  1  1  0
 18 19  1  0
  1  7  1  0
 19 20  1  0
M  CHG  1   7   1
M  END
>  <minimizedAffinity>  (79) 
-9.55180

>  <CNNscore>  (79) 
0.4010397196

>  <CNNaffinity>  (79) 
6.6958298683

>  <CNN_VS>  (79) 
2.6852936745

>  <CNNaffinity_variance>  (79) 
0.0219761208

>  <salt_bridge_distance>  (79) 
(3.0031654383333595, 3.0031654383333595)

$$$$

     RDKit          3D

 31 35  0  0  0  0  0  0  0  0999 V2000
   16.1652    0.9285   59.5221 C   0  0  0  0  0  0  0  0  0  0  0  0
   13.5464   -0.6483   61.8161 C   0  0  0  0  0  0  0  0  0  0  0  0
   12.4212    0.9724   60.2987 C   0  0  0  0  0  0  0  0  0  0  0  0
   14.7952   -0.5929   60.9465 C   0  0  0  0  0  0  0  0  0  0  0  0
   13.6749    1.0282   59.4350 C   0  0  0  0  0  0  0  0  0  0  0  0
   12.3545   -0.2946   61.0339 N   0  0  0  0  0  0  0  0  0  0  0  0
   14.8855    0.7624   60.2923 N   0  0  0  0  0  0  0  0  0  0  0  0
    9.2073   -2.1980   61.1175 C   0  0  0  0  0  0  0  0  0  0  0  0
   10.4368   -1.7033   60.7064 C   0  0  0  0  0  0  0  0  0  0  0  0
    8.6321   -1.7687   62.3151 C   0  0  0  0  0  0  0  0  0  0  0  0
   11.0607    0.6321   63.6677 C   0  0  0  0  0  0  0  0  0  0  0  0
   10.2137    0.8077   64.7363 C   0  0  0  0  0  0  0  0  0  0  0  0
   10.5605   -0.3104   62.7076 C   0  0  0  0  0  0  0  0  0  0  0  0
   11.1173   -0.7659   61.4880 C   0  0  0  0  0  0  0  0  0  0  0  0
    9.3207   -0.8236   63.1007 C   0  0  0  0  0  0  0  0  0  0  0  0
    8.8111   -0.1518   64.6049 S   0  0  0  0  0  0  0  0  0  0  0  0
   16.7348   -0.4451   59.1998 C   0  0  0  0  0  0  0  0  0  0  0  0
   17.5831   -0.4028   57.9310 C   0  0  0  0  0  0  0  0  0  0  0  0
   17.4015    0.9066   57.1766 C   0  0  0  0  0  0  0  0  0  0  0  0
   17.2002    0.6195   55.7997 O   0  0  0  0  0  0  0  0  0  0  0  0
   14.6248   -1.2047   53.9250 C   0  0  0  0  0  0  0  0  0  0  0  0
   15.8623   -0.6703   54.2898 C   0  0  0  0  0  0  0  0  0  0  0  0
   14.8645    0.3387   56.2475 C   0  0  0  0  0  0  0  0  0  0  0  0
   13.5003   -0.9691   54.7209 C   0  0  0  0  0  0  0  0  0  0  0  0
   13.6283   -0.1962   55.8810 C   0  0  0  0  0  0  0  0  0  0  0  0
   15.9818    0.0992   55.4479 C   0  0  0  0  0  0  0  0  0  0  0  0
   12.1885   -1.5105   54.3733 C   0  0  0  0  0  0  0  0  0  0  0  0
   11.1254   -1.2724   55.1498 C   0  0  0  0  0  0  0  0  0  0  0  0
   11.2408   -0.4531   56.3872 C   0  0  0  0  0  0  0  0  0  0  0  0
   12.4966    0.0409   56.6823 N   0  0  0  0  0  0  0  0  0  0  0  0
   10.2473   -0.2488   57.0819 O   0  0  0  0  0  0  0  0  0  0  0  0
  8  9  2  0
  8 10  1  0
 21 22  2  0
 21 24  1  0
  9 14  1  0
 22 26  1  0
 10 15  2  0
 11 12  2  0
 11 13  1  0
 23 25  1  0
 23 26  2  0
 12 16  1  0
 13 14  2  0
 13 15  1  0
 24 25  2  0
 24 27  1  0
 14  6  1  0
 25 30  1  0
 26 20  1  0
 15 16  1  0
 27 28  2  0
 28 29  1  0
 29 30  1  0
 29 31  2  0
  2  4  1  0
  2  6  1  0
  3  5  1  0
  3  6  1  0
  4  7  1  0
  5  7  1  0
 17 18  1  0
 17  1  1  0
 18 19  1  0
  1  7  1  0
 19 20  1  0
M  CHG  1   7   1
M  END
>  <minimizedAffinity>  (80) 
-9.11583

>  <CNNscore>  (80) 
0.3878977895

>  <CNNaffinity>  (80) 
7.1927957535

>  <CNN_VS>  (80) 
2.7900695801

>  <CNNaffinity_variance>  (80) 
0.1076195985

>  <salt_bridge_distance>  (80) 
(3.412638876295002, 3.0065430813477465)

$$$$

     RDKit          3D

 30 34  0  0  0  0  0  0  0  0999 V2000
   16.0028    0.1291   60.5003 C   0  0  0  0  0  0  0  0  0  0  0  0
   14.2035    0.0269   58.7286 C   0  0  0  0  0  0  0  0  0  0  0  0
   14.9557   -0.1649   61.5669 C   0  0  0  0  0  0  0  0  0  0  0  0
   13.1702   -0.2666   59.8087 C   0  0  0  0  0  0  0  0  0  0  0  0
   15.6023   -0.4615   59.1387 C   0  0  0  0  0  0  0  0  0  0  0  0
   13.6002    0.3539   61.1248 N   0  0  0  0  0  0  0  0  0  0  0  0
   18.8129   -1.3776   58.7573 C   0  0  0  0  0  0  0  0  0  0  0  0
   20.1252   -1.5419   58.2919 C   0  0  0  0  0  0  0  0  0  0  0  0
   19.7068   -0.0967   56.3729 C   0  0  0  0  0  0  0  0  0  0  0  0
   17.9449   -0.5621   58.0167 C   0  0  0  0  0  0  0  0  0  0  0  0
   18.4122    0.0443   56.8638 C   0  0  0  0  0  0  0  0  0  0  0  0
   20.5616   -0.9124   57.1215 C   0  0  0  0  0  0  0  0  0  0  0  0
   16.6072   -0.1291   58.0991 C   0  0  0  0  0  0  0  0  0  0  0  0
   16.2697    0.6765   57.0876 N   0  0  0  0  0  0  0  0  0  0  0  0
   17.4144    0.7844   56.3075 O   0  0  0  0  0  0  0  0  0  0  0  0
   21.8244   -1.0925   56.7097 F   0  0  0  0  0  0  0  0  0  0  0  0
   12.5676    0.2069   62.1811 C   0  0  0  0  0  0  0  0  0  0  0  0
   11.1981    0.5261   61.6166 C   0  0  0  0  0  0  0  0  0  0  0  0
   10.1483   -0.3453   62.2423 C   0  0  0  0  0  0  0  0  0  0  0  0
    9.6507   -0.2267   63.4887 C   0  0  0  0  0  0  0  0  0  0  0  0
    9.6038   -1.4368   61.3753 C   0  0  0  0  0  0  0  0  0  0  0  0
    8.1632   -1.9508   63.2440 C   0  0  0  0  0  0  0  0  0  0  0  0
    7.0219   -2.7701   63.8177 C   0  0  0  0  0  0  0  0  0  0  0  0
    6.7907   -4.0965   63.1239 C   0  0  0  0  0  0  0  0  0  0  0  0
    6.7289   -3.8657   61.6276 C   0  0  0  0  0  0  0  0  0  0  0  0
    8.0606   -3.3130   61.1553 C   0  0  0  0  0  0  0  0  0  0  0  0
   10.1487    0.7979   64.4744 C   0  0  0  0  0  0  0  0  0  0  0  0
    8.6566   -1.0231   64.0023 N   0  0  0  0  0  0  0  0  0  0  0  0
    8.5718   -2.1875   61.9436 N   0  0  0  0  0  0  0  0  0  0  0  0
   10.0783   -1.6308   60.2566 O   0  0  0  0  0  0  0  0  0  0  0  0
  7  8  2  0
  7 10  1  0
  8 12  1  0
  9 11  1  0
  9 12  2  0
 10 11  2  0
 10 13  1  0
 11 15  1  0
 12 16  1  0
 13  5  1  0
 13 14  2  0
 19 20  2  0
 19 21  1  0
 19 18  1  0
 20 27  1  0
 20 28  1  0
 21 29  1  0
 21 30  2  0
 22 23  1  0
 22 28  2  0
 22 29  1  0
 23 24  1  0
 24 25  1  0
 25 26  1  0
  1  3  1  0
  1  5  1  0
  2  4  1  0
  2  5  1  0
 26 29  1  0
  3  6  1  0
  4  6  1  0
 18 17  1  0
 17  6  1  0
 14 15  1  0
M  CHG  1   6   1
M  END
>  <minimizedAffinity>  (81) 
-11.29757

>  <CNNscore>  (81) 
0.7403697968

>  <CNNaffinity>  (81) 
7.3728003502

>  <CNN_VS>  (81) 
5.4585986137

>  <CNNaffinity_variance>  (81) 
0.1244486123

>  <salt_bridge_distance>  (81) 
(2.8928741227367634, 2.8928741227367634)

$$$$

     RDKit          3D

 30 34  0  0  0  0  0  0  0  0999 V2000
   16.0138    0.0320   60.0605 C   0  0  0  0  0  0  0  0  0  0  0  0
   14.3983    0.2101   58.1252 C   0  0  0  0  0  0  0  0  0  0  0  0
   14.8429   -0.2179   61.0023 C   0  0  0  0  0  0  0  0  0  0  0  0
   13.2398   -0.0414   59.0818 C   0  0  0  0  0  0  0  0  0  0  0  0
   15.6978   -0.4369   58.6311 C   0  0  0  0  0  0  0  0  0  0  0  0
   13.5921    0.4570   60.4709 N   0  0  0  0  0  0  0  0  0  0  0  0
   18.9159   -1.4043   58.6714 C   0  0  0  0  0  0  0  0  0  0  0  0
   20.2725   -1.5981   58.3752 C   0  0  0  0  0  0  0  0  0  0  0  0
   20.1158   -0.2014   56.3825 C   0  0  0  0  0  0  0  0  0  0  0  0
   18.1584   -0.5985   57.8087 C   0  0  0  0  0  0  0  0  0  0  0  0
   18.7732   -0.0304   56.7067 C   0  0  0  0  0  0  0  0  0  0  0  0
   20.8591   -1.0069   57.2514 C   0  0  0  0  0  0  0  0  0  0  0  0
   16.8279   -0.1464   57.7147 C   0  0  0  0  0  0  0  0  0  0  0  0
   16.6299    0.6351   56.6488 N   0  0  0  0  0  0  0  0  0  0  0  0
   17.8632    0.7067   56.0128 O   0  0  0  0  0  0  0  0  0  0  0  0
   22.1598   -1.2145   57.0029 F   0  0  0  0  0  0  0  0  0  0  0  0
   12.4503    0.3522   61.4137 C   0  0  0  0  0  0  0  0  0  0  0  0
   11.1742    0.8097   60.7366 C   0  0  0  0  0  0  0  0  0  0  0  0
   10.1425   -0.2802   60.7537 C   0  0  0  0  0  0  0  0  0  0  0  0
    9.4935   -0.7825   59.6852 C   0  0  0  0  0  0  0  0  0  0  0  0
    9.8297   -0.8626   62.0963 C   0  0  0  0  0  0  0  0  0  0  0  0
    8.3357   -2.3382   60.9037 C   0  0  0  0  0  0  0  0  0  0  0  0
    7.3804   -3.5170   60.9284 C   0  0  0  0  0  0  0  0  0  0  0  0
    6.7642   -3.7973   62.2834 C   0  0  0  0  0  0  0  0  0  0  0  0
    7.8633   -3.8375   63.3257 C   0  0  0  0  0  0  0  0  0  0  0  0
    8.5388   -2.4803   63.3872 C   0  0  0  0  0  0  0  0  0  0  0  0
    9.6825   -0.2504   58.2886 C   0  0  0  0  0  0  0  0  0  0  0  0
    8.5873   -1.8129   59.7462 N   0  0  0  0  0  0  0  0  0  0  0  0
    8.9278   -1.9293   62.0854 N   0  0  0  0  0  0  0  0  0  0  0  0
   10.3419   -0.3875   63.1093 O   0  0  0  0  0  0  0  0  0  0  0  0
  7  8  2  0
  7 10  1  0
  8 12  1  0
  9 11  1  0
  9 12  2  0
 10 11  2  0
 10 13  1  0
 11 15  1  0
 12 16  1  0
 13  5  1  0
 13 14  2  0
 19 20  2  0
 19 21  1  0
 19 18  1  0
 20 27  1  0
 20 28  1  0
 21 29  1  0
 21 30  2  0
 22 23  1  0
 22 28  2  0
 22 29  1  0
 23 24  1  0
 24 25  1  0
 25 26  1  0
  1  3  1  0
  1  5  1  0
  2  4  1  0
  2  5  1  0
 26 29  1  0
  3  6  1  0
  4  6  1  0
 18 17  1  0
 17  6  1  0
 14 15  1  0
M  CHG  1   6   1
M  END
>  <minimizedAffinity>  (82) 
-11.37260

>  <CNNscore>  (82) 
0.6139537096

>  <CNNaffinity>  (82) 
7.2398133278

>  <CNN_VS>  (82) 
4.4449100494

>  <CNNaffinity_variance>  (82) 
0.0331932381

>  <salt_bridge_distance>  (82) 
(3.0437257793697508, 3.0437257793697508)

$$$$

     RDKit          3D

 30 34  0  0  0  0  0  0  0  0999 V2000
   13.7442   -0.2811   59.9357 C   0  0  0  0  0  0  0  0  0  0  0  0
   14.3349    1.7803   58.5985 C   0  0  0  0  0  0  0  0  0  0  0  0
   12.3010    0.1989   60.0199 C   0  0  0  0  0  0  0  0  0  0  0  0
   12.8871    2.2444   58.6926 C   0  0  0  0  0  0  0  0  0  0  0  0
   14.4420    0.2486   58.6726 C   0  0  0  0  0  0  0  0  0  0  0  0
   12.2506    1.7143   59.9638 N   0  0  0  0  0  0  0  0  0  0  0  0
   16.8910    0.8350   56.4473 C   0  0  0  0  0  0  0  0  0  0  0  0
   18.1107    0.8642   55.7565 C   0  0  0  0  0  0  0  0  0  0  0  0
   19.1834   -0.5401   57.4368 C   0  0  0  0  0  0  0  0  0  0  0  0
   16.8254    0.1077   57.6447 C   0  0  0  0  0  0  0  0  0  0  0  0
   17.9577   -0.5478   58.0959 C   0  0  0  0  0  0  0  0  0  0  0  0
   19.2343    0.1887   56.2440 C   0  0  0  0  0  0  0  0  0  0  0  0
   15.8593   -0.1879   58.6259 C   0  0  0  0  0  0  0  0  0  0  0  0
   16.3452   -0.9600   59.6025 N   0  0  0  0  0  0  0  0  0  0  0  0
   17.6737   -1.1861   59.2641 O   0  0  0  0  0  0  0  0  0  0  0  0
   20.3824    0.2389   55.5540 F   0  0  0  0  0  0  0  0  0  0  0  0
   10.8781    2.2414   60.1690 C   0  0  0  0  0  0  0  0  0  0  0  0
   10.2670    1.6283   61.4128 C   0  0  0  0  0  0  0  0  0  0  0  0
    9.6123    0.3162   61.0927 C   0  0  0  0  0  0  0  0  0  0  0  0
    9.5236   -0.7522   61.9086 C   0  0  0  0  0  0  0  0  0  0  0  0
    8.9906    0.2104   59.7355 C   0  0  0  0  0  0  0  0  0  0  0  0
    8.3105   -2.0027   60.4220 C   0  0  0  0  0  0  0  0  0  0  0  0
    7.5459   -3.2786   60.1214 C   0  0  0  0  0  0  0  0  0  0  0  0
    7.3076   -3.5352   58.6478 C   0  0  0  0  0  0  0  0  0  0  0  0
    6.7410   -2.2807   58.0145 C   0  0  0  0  0  0  0  0  0  0  0  0
    7.7559   -1.1598   58.1393 C   0  0  0  0  0  0  0  0  0  0  0  0
   10.1494   -0.7898   63.2783 C   0  0  0  0  0  0  0  0  0  0  0  0
    8.8744   -1.9187   61.5857 N   0  0  0  0  0  0  0  0  0  0  0  0
    8.3164   -0.9867   59.4829 N   0  0  0  0  0  0  0  0  0  0  0  0
    9.1094    1.1321   58.9290 O   0  0  0  0  0  0  0  0  0  0  0  0
  7  8  2  0
  7 10  1  0
  8 12  1  0
  9 11  1  0
  9 12  2  0
 10 11  2  0
 10 13  1  0
 11 15  1  0
 12 16  1  0
 13  5  1  0
 13 14  2  0
 19 20  2  0
 19 21  1  0
 19 18  1  0
 20 27  1  0
 20 28  1  0
 21 29  1  0
 21 30  2  0
 22 23  1  0
 22 28  2  0
 22 29  1  0
 23 24  1  0
 24 25  1  0
 25 26  1  0
  1  3  1  0
  1  5  1  0
  2  4  1  0
  2  5  1  0
 26 29  1  0
  3  6  1  0
  4  6  1  0
 18 17  1  0
 17  6  1  0
 14 15  1  0
M  CHG  1   6   1
M  END
>  <minimizedAffinity>  (83) 
-10.01611

>  <CNNscore>  (83) 
0.5913282633

>  <CNNaffinity>  (83) 
7.2490568161

>  <CNN_VS>  (83) 
4.2865719795

>  <CNNaffinity_variance>  (83) 
0.0555757470

>  <salt_bridge_distance>  (83) 
(2.934300272637414, 2.934300272637414)

$$$$

     RDKit          3D

 30 34  0  0  0  0  0  0  0  0999 V2000
   15.7081    0.3929   59.6471 C   0  0  0  0  0  0  0  0  0  0  0  0
   14.3354    0.3807   57.5253 C   0  0  0  0  0  0  0  0  0  0  0  0
   14.4351    0.1965   60.4604 C   0  0  0  0  0  0  0  0  0  0  0  0
   13.0729    0.1841   58.3548 C   0  0  0  0  0  0  0  0  0  0  0  0
   15.5713   -0.1967   58.2341 C   0  0  0  0  0  0  0  0  0  0  0  0
   13.2504    0.8005   59.7298 N   0  0  0  0  0  0  0  0  0  0  0  0
   18.7168   -1.3270   58.5829 C   0  0  0  0  0  0  0  0  0  0  0  0
   20.0848   -1.5879   58.4209 C   0  0  0  0  0  0  0  0  0  0  0  0
   20.1978   -0.1728   56.4382 C   0  0  0  0  0  0  0  0  0  0  0  0
   18.0904   -0.4784   57.6584 C   0  0  0  0  0  0  0  0  0  0  0  0
   18.8398    0.0645   56.6293 C   0  0  0  0  0  0  0  0  0  0  0  0
   20.8094   -1.0205   57.3676 C   0  0  0  0  0  0  0  0  0  0  0  0
   16.8003    0.0415   57.4377 C   0  0  0  0  0  0  0  0  0  0  0  0
   16.7491    0.8387   56.3663 N   0  0  0  0  0  0  0  0  0  0  0  0
   18.0416    0.8512   55.8568 O   0  0  0  0  0  0  0  0  0  0  0  0
   22.1164   -1.2926   57.2471 F   0  0  0  0  0  0  0  0  0  0  0  0
   12.0046    0.7493   60.5354 C   0  0  0  0  0  0  0  0  0  0  0  0
   12.1777   -0.2055   61.6992 C   0  0  0  0  0  0  0  0  0  0  0  0
   10.8704   -0.4309   62.4015 C   0  0  0  0  0  0  0  0  0  0  0  0
    9.8991   -1.2858   62.0262 C   0  0  0  0  0  0  0  0  0  0  0  0
   10.6508    0.3709   63.6458 C   0  0  0  0  0  0  0  0  0  0  0  0
    8.5558   -0.8174   63.8209 C   0  0  0  0  0  0  0  0  0  0  0  0
    7.2917   -1.1131   64.6068 C   0  0  0  0  0  0  0  0  0  0  0  0
    6.8923   -0.0279   65.5850 C   0  0  0  0  0  0  0  0  0  0  0  0
    8.0978    0.3485   66.4225 C   0  0  0  0  0  0  0  0  0  0  0  0
    9.1779    0.9067   65.5150 C   0  0  0  0  0  0  0  0  0  0  0  0
    9.9775   -2.1124   60.7693 C   0  0  0  0  0  0  0  0  0  0  0  0
    8.7361   -1.4894   62.7278 N   0  0  0  0  0  0  0  0  0  0  0  0
    9.4658    0.0915   64.3308 N   0  0  0  0  0  0  0  0  0  0  0  0
   11.4759    1.2172   63.9881 O   0  0  0  0  0  0  0  0  0  0  0  0
  7  8  2  0
  7 10  1  0
  8 12  1  0
  9 11  1  0
  9 12  2  0
 10 11  2  0
 10 13  1  0
 11 15  1  0
 12 16  1  0
 13  5  1  0
 13 14  2  0
 19 20  2  0
 19 21  1  0
 19 18  1  0
 20 27  1  0
 20 28  1  0
 21 29  1  0
 21 30  2  0
 22 23  1  0
 22 28  2  0
 22 29  1  0
 23 24  1  0
 24 25  1  0
 25 26  1  0
  1  3  1  0
  1  5  1  0
  2  4  1  0
  2  5  1  0
 26 29  1  0
  3  6  1  0
  4  6  1  0
 18 17  1  0
 17  6  1  0
 14 15  1  0
M  CHG  1   6   1
M  END
>  <minimizedAffinity>  (84) 
-11.53571

>  <CNNscore>  (84) 
0.5522643328

>  <CNNaffinity>  (84) 
7.0436172485

>  <CNN_VS>  (84) 
3.8899385929

>  <CNNaffinity_variance>  (84) 
0.0514951348

>  <salt_bridge_distance>  (84) 
(3.253879784196092, 3.253879784196092)

$$$$

     RDKit          3D

 30 34  0  0  0  0  0  0  0  0999 V2000
   13.8839   -0.5264   59.9936 C   0  0  0  0  0  0  0  0  0  0  0  0
   14.3338    1.5932   58.6930 C   0  0  0  0  0  0  0  0  0  0  0  0
   12.4149   -0.1376   60.1003 C   0  0  0  0  0  0  0  0  0  0  0  0
   12.8613    1.9656   58.8094 C   0  0  0  0  0  0  0  0  0  0  0  0
   14.5352    0.0698   58.7352 C   0  0  0  0  0  0  0  0  0  0  0  0
   12.2714    1.3726   60.0752 N   0  0  0  0  0  0  0  0  0  0  0  0
   16.8861    0.7194   56.4234 C   0  0  0  0  0  0  0  0  0  0  0  0
   18.0841    0.7977   55.6993 C   0  0  0  0  0  0  0  0  0  0  0  0
   19.2857   -0.4672   57.4030 C   0  0  0  0  0  0  0  0  0  0  0  0
   16.8968    0.0383   57.6495 C   0  0  0  0  0  0  0  0  0  0  0  0
   18.0795   -0.5257   58.0948 C   0  0  0  0  0  0  0  0  0  0  0  0
   19.2604    0.2147   56.1820 C   0  0  0  0  0  0  0  0  0  0  0  0
   15.9759   -0.2779   58.6671 C   0  0  0  0  0  0  0  0  0  0  0  0
   16.5343   -0.9777   59.6594 N   0  0  0  0  0  0  0  0  0  0  0  0
   17.8658   -1.1330   59.2941 O   0  0  0  0  0  0  0  0  0  0  0  0
   20.3855    0.3094   55.4597 F   0  0  0  0  0  0  0  0  0  0  0  0
   10.8714    1.8104   60.3033 C   0  0  0  0  0  0  0  0  0  0  0  0
   10.6411    2.0659   61.7791 C   0  0  0  0  0  0  0  0  0  0  0  0
   10.2387    0.8020   62.4815 C   0  0  0  0  0  0  0  0  0  0  0  0
   10.5107    0.4778   63.7606 C   0  0  0  0  0  0  0  0  0  0  0  0
    9.4461   -0.1730   61.6687 C   0  0  0  0  0  0  0  0  0  0  0  0
    9.3714   -1.5073   63.6802 C   0  0  0  0  0  0  0  0  0  0  0  0
    8.8584   -2.7384   64.4043 C   0  0  0  0  0  0  0  0  0  0  0  0
    8.4490   -3.8773   63.4936 C   0  0  0  0  0  0  0  0  0  0  0  0
    7.5347   -3.3389   62.4118 C   0  0  0  0  0  0  0  0  0  0  0  0
    8.2940   -2.3213   61.5812 C   0  0  0  0  0  0  0  0  0  0  0  0
   11.3398    1.3497   64.6671 C   0  0  0  0  0  0  0  0  0  0  0  0
   10.0821   -0.6744   64.3732 N   0  0  0  0  0  0  0  0  0  0  0  0
    9.0112   -1.3067   62.3595 N   0  0  0  0  0  0  0  0  0  0  0  0
    9.2360    0.0451   60.4761 O   0  0  0  0  0  0  0  0  0  0  0  0
  7  8  2  0
  7 10  1  0
  8 12  1  0
  9 11  1  0
  9 12  2  0
 10 11  2  0
 10 13  1  0
 11 15  1  0
 12 16  1  0
 13  5  1  0
 13 14  2  0
 19 20  2  0
 19 21  1  0
 19 18  1  0
 20 27  1  0
 20 28  1  0
 21 29  1  0
 21 30  2  0
 22 23  1  0
 22 28  2  0
 22 29  1  0
 23 24  1  0
 24 25  1  0
 25 26  1  0
  1  3  1  0
  1  5  1  0
  2  4  1  0
  2  5  1  0
 26 29  1  0
  3  6  1  0
  4  6  1  0
 18 17  1  0
 17  6  1  0
 14 15  1  0
M  CHG  1   6   1
M  END
>  <minimizedAffinity>  (85) 
-10.23600

>  <CNNscore>  (85) 
0.4834661186

>  <CNNaffinity>  (85) 
7.1179971695

>  <CNN_VS>  (85) 
3.4413104057

>  <CNNaffinity_variance>  (85) 
0.0379220732

>  <salt_bridge_distance>  (85) 
(3.03246443672469, 3.03246443672469)

$$$$

     RDKit          3D

 30 34  0  0  0  0  0  0  0  0999 V2000
   12.0946    2.1595   58.0221 C   0  0  0  0  0  0  0  0  0  0  0  0
   12.9004    0.1756   59.3642 C   0  0  0  0  0  0  0  0  0  0  0  0
   11.7156    2.8686   59.3159 C   0  0  0  0  0  0  0  0  0  0  0  0
   12.5155    0.9000   60.6479 C   0  0  0  0  0  0  0  0  0  0  0  0
   13.2467    1.1655   58.2403 C   0  0  0  0  0  0  0  0  0  0  0  0
   11.3631    1.8512   60.3850 N   0  0  0  0  0  0  0  0  0  0  0  0
   16.1785    0.5487   56.7180 C   0  0  0  0  0  0  0  0  0  0  0  0
   17.1775    0.1214   55.8320 C   0  0  0  0  0  0  0  0  0  0  0  0
   15.5344   -0.9178   54.3600 C   0  0  0  0  0  0  0  0  0  0  0  0
   14.8456    0.2355   56.4139 C   0  0  0  0  0  0  0  0  0  0  0  0
   14.5690   -0.4779   55.2609 C   0  0  0  0  0  0  0  0  0  0  0  0
   16.8591   -0.5982   54.6755 C   0  0  0  0  0  0  0  0  0  0  0  0
   13.5753    0.4488   56.9834 C   0  0  0  0  0  0  0  0  0  0  0  0
   12.5929   -0.0838   56.2505 N   0  0  0  0  0  0  0  0  0  0  0  0
   13.2251   -0.6696   55.1607 O   0  0  0  0  0  0  0  0  0  0  0  0
   17.8423   -0.9878   53.8520 F   0  0  0  0  0  0  0  0  0  0  0  0
   10.8641    2.4894   61.6289 C   0  0  0  0  0  0  0  0  0  0  0  0
    9.4481    2.0322   61.9151 C   0  0  0  0  0  0  0  0  0  0  0  0
    9.3193    0.5488   61.7260 C   0  0  0  0  0  0  0  0  0  0  0  0
    9.5652   -0.3987   62.6517 C   0  0  0  0  0  0  0  0  0  0  0  0
    8.8571    0.1003   60.3752 C   0  0  0  0  0  0  0  0  0  0  0  0
    8.9629   -2.1344   61.2844 C   0  0  0  0  0  0  0  0  0  0  0  0
    8.7175   -3.6216   61.1083 C   0  0  0  0  0  0  0  0  0  0  0  0
    8.6735   -4.0842   59.6667 C   0  0  0  0  0  0  0  0  0  0  0  0
    7.7391   -3.1809   58.8877 C   0  0  0  0  0  0  0  0  0  0  0  0
    8.2834   -1.7648   58.9115 C   0  0  0  0  0  0  0  0  0  0  0  0
   10.0811   -0.0807   64.0309 C   0  0  0  0  0  0  0  0  0  0  0  0
    9.3903   -1.7451   62.4441 N   0  0  0  0  0  0  0  0  0  0  0  0
    8.6655   -1.2769   60.2402 N   0  0  0  0  0  0  0  0  0  0  0  0
    8.6906    0.9231   59.4755 O   0  0  0  0  0  0  0  0  0  0  0  0
  7  8  2  0
  7 10  1  0
  8 12  1  0
  9 11  1  0
  9 12  2  0
 10 11  2  0
 10 13  1  0
 11 15  1  0
 12 16  1  0
 13  5  1  0
 13 14  2  0
 19 20  2  0
 19 21  1  0
 19 18  1  0
 20 27  1  0
 20 28  1  0
 21 29  1  0
 21 30  2  0
 22 23  1  0
 22 28  2  0
 22 29  1  0
 23 24  1  0
 24 25  1  0
 25 26  1  0
  1  3  1  0
  1  5  1  0
  2  4  1  0
  2  5  1  0
 26 29  1  0
  3  6  1  0
  4  6  1  0
 18 17  1  0
 17  6  1  0
 14 15  1  0
M  CHG  1   6   1
M  END
>  <minimizedAffinity>  (86) 
-8.51202

>  <CNNscore>  (86) 
0.4805622101

>  <CNNaffinity>  (86) 
7.1618142128

>  <CNN_VS>  (86) 
3.4416973591

>  <CNNaffinity_variance>  (86) 
0.1250872910

>  <salt_bridge_distance>  (86) 
(3.2525786769884615, 3.2525786769884615)

$$$$

     RDKit          3D

 30 34  0  0  0  0  0  0  0  0999 V2000
   12.8143    2.2468   58.2001 C   0  0  0  0  0  0  0  0  0  0  0  0
   13.0448    0.2907   59.7835 C   0  0  0  0  0  0  0  0  0  0  0  0
   12.1679    3.0600   59.3142 C   0  0  0  0  0  0  0  0  0  0  0  0
   12.3968    1.1190   60.8856 C   0  0  0  0  0  0  0  0  0  0  0  0
   13.7695    1.1810   58.7611 C   0  0  0  0  0  0  0  0  0  0  0  0
   11.4495    2.1396   60.2831 N   0  0  0  0  0  0  0  0  0  0  0  0
   12.3523   -0.6198   56.3031 C   0  0  0  0  0  0  0  0  0  0  0  0
   12.1210   -1.4415   55.1909 C   0  0  0  0  0  0  0  0  0  0  0  0
   14.5123   -1.7445   54.8216 C   0  0  0  0  0  0  0  0  0  0  0  0
   13.6809   -0.3632   56.6720 C   0  0  0  0  0  0  0  0  0  0  0  0
   14.7050   -0.9254   55.9302 C   0  0  0  0  0  0  0  0  0  0  0  0
   13.1825   -1.9922   54.4653 C   0  0  0  0  0  0  0  0  0  0  0  0
   14.3570    0.3664   57.6691 C   0  0  0  0  0  0  0  0  0  0  0  0
   15.6852    0.2677   57.5596 N   0  0  0  0  0  0  0  0  0  0  0  0
   15.9024   -0.5507   56.4581 O   0  0  0  0  0  0  0  0  0  0  0  0
   12.9209   -2.7745   53.4088 F   0  0  0  0  0  0  0  0  0  0  0  0
   10.6949    2.8885   61.3191 C   0  0  0  0  0  0  0  0  0  0  0  0
    9.2658    2.3888   61.3836 C   0  0  0  0  0  0  0  0  0  0  0  0
    9.2266    0.8884   61.3905 C   0  0  0  0  0  0  0  0  0  0  0  0
    9.4336    0.0889   62.4549 C   0  0  0  0  0  0  0  0  0  0  0  0
    8.9102    0.2373   60.0807 C   0  0  0  0  0  0  0  0  0  0  0  0
    9.0416   -1.8462   61.2945 C   0  0  0  0  0  0  0  0  0  0  0  0
    8.8853   -3.3557   61.3051 C   0  0  0  0  0  0  0  0  0  0  0  0
    8.9938   -4.0076   59.9422 C   0  0  0  0  0  0  0  0  0  0  0  0
    8.0908   -3.2737   58.9717 C   0  0  0  0  0  0  0  0  0  0  0  0
    8.5616   -1.8369   58.8453 C   0  0  0  0  0  0  0  0  0  0  0  0
    9.8071    0.6178   63.8151 C   0  0  0  0  0  0  0  0  0  0  0  0
    9.3434   -1.2812   62.4208 N   0  0  0  0  0  0  0  0  0  0  0  0
    8.7983   -1.1546   60.1212 N   0  0  0  0  0  0  0  0  0  0  0  0
    8.7858    0.9217   59.0657 O   0  0  0  0  0  0  0  0  0  0  0  0
  7  8  2  0
  7 10  1  0
  8 12  1  0
  9 11  1  0
  9 12  2  0
 10 11  2  0
 10 13  1  0
 11 15  1  0
 12 16  1  0
 13  5  1  0
 13 14  2  0
 19 20  2  0
 19 21  1  0
 19 18  1  0
 20 27  1  0
 20 28  1  0
 21 29  1  0
 21 30  2  0
 22 23  1  0
 22 28  2  0
 22 29  1  0
 23 24  1  0
 24 25  1  0
 25 26  1  0
  1  3  1  0
  1  5  1  0
  2  4  1  0
  2  5  1  0
 26 29  1  0
  3  6  1  0
  4  6  1  0
 18 17  1  0
 17  6  1  0
 14 15  1  0
M  CHG  1   6   1
M  END
>  <minimizedAffinity>  (87) 
-8.62287

>  <CNNscore>  (87) 
0.4113838077

>  <CNNaffinity>  (87) 
7.0480895042

>  <CNN_VS>  (87) 
2.8994698524

>  <CNNaffinity_variance>  (87) 
0.1297169477

>  <salt_bridge_distance>  (87) 
(3.132666790451868, 3.132666790451868)

$$$$

     RDKit          3D

 30 34  0  0  0  0  0  0  0  0999 V2000
   11.3540    0.6409   60.2927 C   0  0  0  0  0  0  0  0  0  0  0  0
   13.0903   -0.4041   61.8027 C   0  0  0  0  0  0  0  0  0  0  0  0
   12.3950    0.7476   59.1857 C   0  0  0  0  0  0  0  0  0  0  0  0
   14.1179   -0.2897   60.6840 C   0  0  0  0  0  0  0  0  0  0  0  0
   11.6623   -0.5247   61.2464 C   0  0  0  0  0  0  0  0  0  0  0  0
   13.7821    0.8854   59.7848 N   0  0  0  0  0  0  0  0  0  0  0  0
    8.9781   -2.4902   61.7210 C   0  0  0  0  0  0  0  0  0  0  0  0
    7.8284   -3.1065   62.2348 C   0  0  0  0  0  0  0  0  0  0  0  0
    7.8470   -1.6713   64.2060 C   0  0  0  0  0  0  0  0  0  0  0  0
    9.5620   -1.4538   62.4640 C   0  0  0  0  0  0  0  0  0  0  0  0
    8.9866   -1.0819   63.6664 C   0  0  0  0  0  0  0  0  0  0  0  0
    7.2752   -2.7030   63.4545 C   0  0  0  0  0  0  0  0  0  0  0  0
   10.6675   -0.5893   62.3453 C   0  0  0  0  0  0  0  0  0  0  0  0
   10.7724    0.2482   63.3814 N   0  0  0  0  0  0  0  0  0  0  0  0
    9.7069   -0.0660   64.2159 O   0  0  0  0  0  0  0  0  0  0  0  0
    6.1741   -3.3156   63.9117 F   0  0  0  0  0  0  0  0  0  0  0  0
   14.8223    1.1201   58.7521 C   0  0  0  0  0  0  0  0  0  0  0  0
   15.0011   -0.1225   57.9035 C   0  0  0  0  0  0  0  0  0  0  0  0
   16.4003   -0.2031   57.3661 C   0  0  0  0  0  0  0  0  0  0  0  0
   16.8194    0.2304   56.1613 C   0  0  0  0  0  0  0  0  0  0  0  0
   17.4164   -0.8141   58.2792 C   0  0  0  0  0  0  0  0  0  0  0  0
   19.0095   -0.3282   56.5307 C   0  0  0  0  0  0  0  0  0  0  0  0
   20.4495   -0.3156   56.0519 C   0  0  0  0  0  0  0  0  0  0  0  0
   21.3582   -1.2921   56.7695 C   0  0  0  0  0  0  0  0  0  0  0  0
   21.1754   -1.1278   58.2647 C   0  0  0  0  0  0  0  0  0  0  0  0
   19.7414   -1.4637   58.6293 C   0  0  0  0  0  0  0  0  0  0  0  0
   15.8877    0.8183   55.1339 C   0  0  0  0  0  0  0  0  0  0  0  0
   18.1225    0.1744   55.7309 N   0  0  0  0  0  0  0  0  0  0  0  0
   18.7275   -0.8088   57.7970 N   0  0  0  0  0  0  0  0  0  0  0  0
   17.0682   -1.2907   59.3590 O   0  0  0  0  0  0  0  0  0  0  0  0
  7  8  2  0
  7 10  1  0
  8 12  1  0
  9 11  1  0
  9 12  2  0
 10 11  2  0
 10 13  1  0
 11 15  1  0
 12 16  1  0
 13  5  1  0
 13 14  2  0
 19 20  2  0
 19 21  1  0
 19 18  1  0
 20 27  1  0
 20 28  1  0
 21 29  1  0
 21 30  2  0
 22 23  1  0
 22 28  2  0
 22 29  1  0
 23 24  1  0
 24 25  1  0
 25 26  1  0
  1  3  1  0
  1  5  1  0
  2  4  1  0
  2  5  1  0
 26 29  1  0
  3  6  1  0
  4  6  1  0
 18 17  1  0
 17  6  1  0
 14 15  1  0
M  CHG  1   6   1
M  END
>  <minimizedAffinity>  (88) 
-11.53613

>  <CNNscore>  (88) 
0.4070610702

>  <CNNaffinity>  (88) 
6.8584609032

>  <CNN_VS>  (88) 
2.7918124199

>  <CNNaffinity_variance>  (88) 
0.0801574588

>  <salt_bridge_distance>  (88) 
(3.083861833805141, 3.083861833805141)

$$$$

     RDKit          3D

 30 34  0  0  0  0  0  0  0  0999 V2000
   14.2463   -0.5670   60.3160 C   0  0  0  0  0  0  0  0  0  0  0  0
   13.1436    1.3253   59.0552 C   0  0  0  0  0  0  0  0  0  0  0  0
   13.0724   -0.5918   61.2863 C   0  0  0  0  0  0  0  0  0  0  0  0
   11.9778    1.2859   60.0350 C   0  0  0  0  0  0  0  0  0  0  0  0
   13.8235   -0.0479   58.9322 C   0  0  0  0  0  0  0  0  0  0  0  0
   12.4500    0.7882   61.3883 N   0  0  0  0  0  0  0  0  0  0  0  0
   14.0444    0.6801   55.6589 C   0  0  0  0  0  0  0  0  0  0  0  0
   14.5029    0.9204   54.3559 C   0  0  0  0  0  0  0  0  0  0  0  0
   16.8105    0.4705   55.0030 C   0  0  0  0  0  0  0  0  0  0  0  0
   14.9859    0.3315   56.6384 C   0  0  0  0  0  0  0  0  0  0  0  0
   16.3207    0.2390   56.2849 C   0  0  0  0  0  0  0  0  0  0  0  0
   15.8608    0.8170   54.0364 C   0  0  0  0  0  0  0  0  0  0  0  0
   14.9845    0.0146   58.0106 C   0  0  0  0  0  0  0  0  0  0  0  0
   16.2098   -0.2525   58.4726 N   0  0  0  0  0  0  0  0  0  0  0  0
   17.0534   -0.1098   57.3779 O   0  0  0  0  0  0  0  0  0  0  0  0
   16.2600    1.0526   52.7787 F   0  0  0  0  0  0  0  0  0  0  0  0
   11.3809    0.8507   62.4162 C   0  0  0  0  0  0  0  0  0  0  0  0
   10.0528    1.1792   61.7647 C   0  0  0  0  0  0  0  0  0  0  0  0
    9.3647   -0.0709   61.2993 C   0  0  0  0  0  0  0  0  0  0  0  0
    9.1443   -1.1808   62.0305 C   0  0  0  0  0  0  0  0  0  0  0  0
    8.8696   -0.0568   59.8871 C   0  0  0  0  0  0  0  0  0  0  0  0
    8.0147   -2.2654   60.3594 C   0  0  0  0  0  0  0  0  0  0  0  0
    7.2173   -3.4743   59.9057 C   0  0  0  0  0  0  0  0  0  0  0  0
    7.1067   -3.6253   58.4027 C   0  0  0  0  0  0  0  0  0  0  0  0
    6.6679   -2.3036   57.8056 C   0  0  0  0  0  0  0  0  0  0  0  0
    7.7227   -1.2528   58.0970 C   0  0  0  0  0  0  0  0  0  0  0  0
    9.6348   -1.3388   63.4460 C   0  0  0  0  0  0  0  0  0  0  0  0
    8.4694   -2.2859   61.5726 N   0  0  0  0  0  0  0  0  0  0  0  0
    8.1617   -1.1954   59.4947 N   0  0  0  0  0  0  0  0  0  0  0  0
    9.1115    0.9045   59.1581 O   0  0  0  0  0  0  0  0  0  0  0  0
  7  8  2  0
  7 10  1  0
  8 12  1  0
  9 11  1  0
  9 12  2  0
 10 11  2  0
 10 13  1  0
 11 15  1  0
 12 16  1  0
 13  5  1  0
 13 14  2  0
 19 20  2  0
 19 21  1  0
 19 18  1  0
 20 27  1  0
 20 28  1  0
 21 29  1  0
 21 30  2  0
 22 23  1  0
 22 28  2  0
 22 29  1  0
 23 24  1  0
 24 25  1  0
 25 26  1  0
  1  3  1  0
  1  5  1  0
  2  4  1  0
  2  5  1  0
 26 29  1  0
  3  6  1  0
  4  6  1  0
 18 17  1  0
 17  6  1  0
 14 15  1  0
M  CHG  1   6   1
M  END
>  <minimizedAffinity>  (89) 
-9.35305

>  <CNNscore>  (89) 
0.4054754376

>  <CNNaffinity>  (89) 
7.2023034096

>  <CNN_VS>  (89) 
2.9203572273

>  <CNNaffinity_variance>  (89) 
0.0821665451

>  <salt_bridge_distance>  (89) 
(2.815673512678628, 2.815673512678628)

$$$$

     RDKit          3D

 17 20  0  0  0  0  0  0  0  0999 V2000
   15.9401   -0.1811   55.6873 C   0  0  0  0  0  0  0  0  0  0  0  0
   16.6048   -0.3284   56.8983 C   0  0  0  0  0  0  0  0  0  0  0  0
   14.5855    0.1188   55.6811 C   0  0  0  0  0  0  0  0  0  0  0  0
   15.9300   -0.1671   58.1230 C   0  0  0  0  0  0  0  0  0  0  0  0
   13.8740    0.2489   56.8867 C   0  0  0  0  0  0  0  0  0  0  0  0
   14.5373    0.1006   58.1320 C   0  0  0  0  0  0  0  0  0  0  0  0
   16.7691   -0.2662   59.3776 C   0  0  0  0  0  0  0  0  0  0  0  0
   10.4332   -0.9455   57.0283 C   0  0  0  0  0  0  0  0  0  0  0  0
   11.6127   -0.6189   56.1203 C   0  0  0  0  0  0  0  0  0  0  0  0
   10.9475   -0.6058   58.4151 C   0  0  0  0  0  0  0  0  0  0  0  0
   14.1454   -0.5109   60.5124 C   0  0  0  0  0  0  0  0  0  0  0  0
   12.6401    1.1009   59.2943 C   0  0  0  0  0  0  0  0  0  0  0  0
   15.2204    0.1819   61.3302 C   0  0  0  0  0  0  0  0  0  0  0  0
   12.3827    0.5304   56.8098 C   0  0  1  0  0  0  0  0  0  0  0  0
   11.6896    0.7095   58.1754 C   0  0  1  0  0  0  0  0  0  0  0  0
   13.8026    0.2275   59.3074 N   0  0  0  0  0  0  0  0  0  0  0  0
   16.3491    0.6565   60.4804 N   0  0  0  0  0  0  0  0  0  0  0  0
  1  2  2  0
  1  3  1  0
  2  4  1  0
  3  5  2  0
  4  6  2  0
  4  7  1  0
  5  6  1  0
  5 14  1  0
  6 16  1  0
  7 17  1  0
  8  9  1  0
  8 10  1  0
 14  9  1  1
 15 10  1  1
 11 13  1  0
 11 16  1  0
 12 15  1  0
 12 16  1  0
 13 17  1  0
 14 15  1  0
M  CHG  1  17   1
M  END
>  <minimizedAffinity>  (90) 
-8.02009

>  <CNNscore>  (90) 
0.6687120199

>  <CNNaffinity>  (90) 
5.7379317284

>  <CNN_VS>  (90) 
3.8370239735

>  <CNNaffinity_variance>  (90) 
0.1148361117

>  <salt_bridge_distance>  (90) 
(3.2015201732926806, 3.2015201732926806)

$$$$

     RDKit          3D

 17 20  0  0  0  0  0  0  0  0999 V2000
   12.3028    0.3762   56.4664 C   0  0  0  0  0  0  0  0  0  0  0  0
   13.5668    0.2928   57.0366 C   0  0  0  0  0  0  0  0  0  0  0  0
   11.1790    0.2982   57.2764 C   0  0  0  0  0  0  0  0  0  0  0  0
   13.7295    0.1418   58.4267 C   0  0  0  0  0  0  0  0  0  0  0  0
   11.3063    0.1094   58.6637 C   0  0  0  0  0  0  0  0  0  0  0  0
   12.5897    0.0212   59.2620 C   0  0  0  0  0  0  0  0  0  0  0  0
   15.1494    0.1473   58.9477 C   0  0  0  0  0  0  0  0  0  0  0  0
    8.8599   -1.9777   60.3798 C   0  0  0  0  0  0  0  0  0  0  0  0
    9.2048   -1.2551   59.0832 C   0  0  0  0  0  0  0  0  0  0  0  0
   10.0302   -1.6531   61.2898 C   0  0  0  0  0  0  0  0  0  0  0  0
   13.7824   -0.9096   61.2380 C   0  0  0  0  0  0  0  0  0  0  0  0
   11.6131    0.3499   61.4732 C   0  0  0  0  0  0  0  0  0  0  0  0
   15.0037   -0.0382   61.4689 C   0  0  0  0  0  0  0  0  0  0  0  0
   10.0357   -0.0160   59.4876 C   0  0  1  0  0  0  0  0  0  0  0  0
   10.2641   -0.1691   61.0047 C   0  0  1  0  0  0  0  0  0  0  0  0
   12.6813   -0.1739   60.6371 N   0  0  0  0  0  0  0  0  0  0  0  0
   15.3190    0.8065   60.2821 N   0  0  0  0  0  0  0  0  0  0  0  0
  1  2  2  0
  1  3  1  0
  2  4  1  0
  3  5  2  0
  4  6  2  0
  4  7  1  0
  5  6  1  0
  5 14  1  0
  6 16  1  0
  7 17  1  0
  8  9  1  0
  8 10  1  0
 14  9  1  6
 15 10  1  6
 11 13  1  0
 11 16  1  0
 12 15  1  0
 12 16  1  0
 13 17  1  0
 14 15  1  0
M  CHG  1  17   1
M  END
>  <minimizedAffinity>  (91) 
-7.18700

>  <CNNscore>  (91) 
0.5554438233

>  <CNNaffinity>  (91) 
5.5323357582

>  <CNN_VS>  (91) 
3.0729017258

>  <CNNaffinity_variance>  (91) 
0.0458099656

>  <salt_bridge_distance>  (91) 
(3.2512169813778975, 3.1417683651090504)

$$$$

     RDKit          3D

 17 20  0  0  0  0  0  0  0  0999 V2000
    9.3562   -0.9306   65.6373 C   0  0  0  0  0  0  0  0  0  0  0  0
    9.8708    0.1521   64.9351 C   0  0  0  0  0  0  0  0  0  0  0  0
    8.9619   -2.0689   64.9490 C   0  0  0  0  0  0  0  0  0  0  0  0
   10.0108    0.1112   63.5351 C   0  0  0  0  0  0  0  0  0  0  0  0
    9.0533   -2.1275   63.5473 C   0  0  0  0  0  0  0  0  0  0  0  0
    9.5756   -1.0304   62.8149 C   0  0  0  0  0  0  0  0  0  0  0  0
   10.6603    1.3117   62.8834 C   0  0  0  0  0  0  0  0  0  0  0  0
    6.4535   -3.8855   61.6938 C   0  0  0  0  0  0  0  0  0  0  0  0
    7.0467   -3.6106   63.0703 C   0  0  0  0  0  0  0  0  0  0  0  0
    7.3516   -3.0997   60.7563 C   0  0  0  0  0  0  0  0  0  0  0  0
    9.5094    0.0540   60.5759 C   0  0  0  0  0  0  0  0  0  0  0  0
    9.8214   -2.4327   60.8340 C   0  0  0  0  0  0  0  0  0  0  0  0
   10.8190    0.8031   60.4079 C   0  0  0  0  0  0  0  0  0  0  0  0
    8.5599   -3.3846   62.8507 C   0  0  1  0  0  0  0  0  0  0  0  0
    8.7437   -3.3872   61.3198 C   0  0  1  0  0  0  0  0  0  0  0  0
    9.6453   -1.1170   61.4274 N   0  0  0  0  0  0  0  0  0  0  0  0
   11.5277    0.9862   61.7062 N   0  0  0  0  0  0  0  0  0  0  0  0
  1  2  2  0
  1  3  1  0
  2  4  1  0
  3  5  2  0
  4  6  2  0
  4  7  1  0
  5  6  1  0
  5 14  1  0
  6 16  1  0
  7 17  1  0
  8  9  1  0
  8 10  1  0
 14  9  1  6
 15 10  1  6
 11 13  1  0
 11 16  1  0
 12 15  1  0
 12 16  1  0
 13 17  1  0
 14 15  1  0
M  CHG  1  17   1
M  END
>  <minimizedAffinity>  (92) 
-7.50425

>  <CNNscore>  (92) 
0.4300450087

>  <CNNaffinity>  (92) 
5.1768112183

>  <CNN_VS>  (92) 
2.2262618542

>  <CNNaffinity_variance>  (92) 
0.2041512430

>  <salt_bridge_distance>  (92) 
(3.228466659267214, 3.228466659267214)

$$$$

     RDKit          3D

 17 20  0  0  0  0  0  0  0  0999 V2000
   16.4354   -0.7832   59.0344 C   0  0  0  0  0  0  0  0  0  0  0  0
   15.5226   -0.6102   60.0674 C   0  0  0  0  0  0  0  0  0  0  0  0
   16.0246   -0.6092   57.7206 C   0  0  0  0  0  0  0  0  0  0  0  0
   14.1875   -0.2492   59.8058 C   0  0  0  0  0  0  0  0  0  0  0  0
   14.6891   -0.2858   57.4233 C   0  0  0  0  0  0  0  0  0  0  0  0
   13.7441   -0.1065   58.4662 C   0  0  0  0  0  0  0  0  0  0  0  0
   13.3032   -0.0049   61.0083 C   0  0  0  0  0  0  0  0  0  0  0  0
   13.1636   -1.7134   54.4367 C   0  0  0  0  0  0  0  0  0  0  0  0
   14.4650   -1.4886   55.1969 C   0  0  0  0  0  0  0  0  0  0  0  0
   12.1206   -1.0419   55.3110 C   0  0  0  0  0  0  0  0  0  0  0  0
   11.3076   -0.2257   58.9589 C   0  0  0  0  0  0  0  0  0  0  0  0
   12.1887    0.9525   56.9137 C   0  0  0  0  0  0  0  0  0  0  0  0
   11.0441    0.7159   60.1201 C   0  0  0  0  0  0  0  0  0  0  0  0
   14.2932   -0.1565   55.9620 C   0  0  1  0  0  0  0  0  0  0  0  0
   12.8249    0.2505   55.7258 C   0  0  1  0  0  0  0  0  0  0  0  0
   12.4278    0.2055   58.1381 N   0  0  0  0  0  0  0  0  0  0  0  0
   12.2998    1.0929   60.8289 N   0  0  0  0  0  0  0  0  0  0  0  0
  1  2  2  0
  1  3  1  0
  2  4  1  0
  3  5  2  0
  4  6  2  0
  4  7  1  0
  5  6  1  0
  5 14  1  0
  6 16  1  0
  7 17  1  0
  8  9  1  0
  8 10  1  0
 14  9  1  6
 15 10  1  1
 11 13  1  0
 11 16  1  0
 12 15  1  0
 12 16  1  0
 13 17  1  0
 14 15  1  0
M  CHG  1  17   1
M  END
>  <minimizedAffinity>  (93) 
-8.17952

>  <CNNscore>  (93) 
0.4117331505

>  <CNNaffinity>  (93) 
5.3506107330

>  <CNN_VS>  (93) 
2.2030239105

>  <CNNaffinity_variance>  (93) 
0.1673882902

>  <salt_bridge_distance>  (93) 
(2.8221566327898966, 2.8221566327898966)

$$$$

     RDKit          3D

 31 34  0  0  0  0  0  0  0  0999 V2000
   16.0356    0.2203   60.1952 C   0  0  0  0  0  0  0  0  0  0  0  0
   14.3931    0.2138   58.2746 C   0  0  0  0  0  0  0  0  0  0  0  0
   14.8847   -0.0041   61.1675 C   0  0  0  0  0  0  0  0  0  0  0  0
   13.2547   -0.0109   59.2615 C   0  0  0  0  0  0  0  0  0  0  0  0
   15.7195   -0.3541   58.8048 C   0  0  0  0  0  0  0  0  0  0  0  0
   13.6208    0.5925   60.5964 N   0  0  0  0  0  0  0  0  0  0  0  0
   18.9069   -1.4169   58.7355 C   0  0  0  0  0  0  0  0  0  0  0  0
   20.2472   -1.6483   58.3951 C   0  0  0  0  0  0  0  0  0  0  0  0
   20.0701   -0.2291   56.4200 C   0  0  0  0  0  0  0  0  0  0  0  0
   18.1472   -0.5811   57.9039 C   0  0  0  0  0  0  0  0  0  0  0  0
   18.7440   -0.0213   56.7878 C   0  0  0  0  0  0  0  0  0  0  0  0
   20.8158   -1.0644   57.2583 C   0  0  0  0  0  0  0  0  0  0  0  0
   16.8286   -0.0887   57.8556 C   0  0  0  0  0  0  0  0  0  0  0  0
   16.6209    0.7081   56.8031 N   0  0  0  0  0  0  0  0  0  0  0  0
   17.8352    0.7490   56.1292 O   0  0  0  0  0  0  0  0  0  0  0  0
   22.1013   -1.3082   56.9671 F   0  0  0  0  0  0  0  0  0  0  0  0
   12.4789    0.5128   61.5724 C   0  0  0  0  0  0  0  0  0  0  0  0
   11.7965   -0.8370   61.4309 C   0  0  0  0  0  0  0  0  0  0  0  0
   10.2975   -0.6812   61.2190 C   0  0  0  0  0  0  0  0  0  0  0  0
    9.8314   -1.7597   60.4198 O   0  0  0  0  0  0  0  0  0  0  0  0
    7.8426   -3.7509   62.7647 C   0  0  0  0  0  0  0  0  0  0  0  0
    8.8845   -2.9899   62.2347 C   0  0  0  0  0  0  0  0  0  0  0  0
    6.6334   -3.5450   60.6832 C   0  0  0  0  0  0  0  0  0  0  0  0
    6.7171   -4.0285   61.9889 C   0  0  0  0  0  0  0  0  0  0  0  0
    8.8008   -2.5064   60.9290 C   0  0  0  0  0  0  0  0  0  0  0  0
    7.6753   -2.7839   60.1533 C   0  0  0  0  0  0  0  0  0  0  0  0
    5.6318   -4.8238   62.5409 C   0  0  0  0  0  0  0  0  0  0  0  0
    4.4673   -5.1260   61.6430 C   0  0  0  0  0  0  0  0  0  0  0  0
    5.5933   -5.2645   63.6916 O   0  0  0  0  0  0  0  0  0  0  0  0
    6.7728   -3.0678   57.9714 C   0  0  0  0  0  0  0  0  0  0  0  0
    7.5827   -2.3195   58.8760 O   0  0  0  0  0  0  0  0  0  0  0  0
  7  8  2  0
  7 10  1  0
 21 22  2  0
 21 24  1  0
 22 25  1  0
  8 12  1  0
 23 24  2  0
 23 26  1  0
  9 11  1  0
  9 12  2  0
 10 11  2  0
 10 13  1  0
 24 27  1  0
 11 15  1  0
 25 26  2  0
 25 20  1  0
 26 31  1  0
 12 16  1  0
 13  5  1  0
 13 14  2  0
 27 28  1  0
 27 29  2  0
  1  3  1  0
  1  5  1  0
  2  4  1  0
  2  5  1  0
  3  6  1  0
  4  6  1  0
 30 31  1  0
 18 17  1  0
 18 19  1  0
 17  6  1  0
 19 20  1  0
 14 15  1  0
M  CHG  1   6   1
M  END
>  <minimizedAffinity>  (94) 
-9.83360

>  <CNNscore>  (94) 
0.7782685757

>  <CNNaffinity>  (94) 
6.8240499496

>  <CNN_VS>  (94) 
5.3109436035

>  <CNNaffinity_variance>  (94) 
0.0220691226

>  <salt_bridge_distance>  (94) 
(2.863155715290384, 2.863155715290384)

$$$$

     RDKit          3D

 31 34  0  0  0  0  0  0  0  0999 V2000
   15.9220    0.1101   60.3552 C   0  0  0  0  0  0  0  0  0  0  0  0
   14.2038    0.1134   58.5019 C   0  0  0  0  0  0  0  0  0  0  0  0
   14.8149   -0.1521   61.3680 C   0  0  0  0  0  0  0  0  0  0  0  0
   13.1098   -0.1492   59.5289 C   0  0  0  0  0  0  0  0  0  0  0  0
   15.5592   -0.4426   58.9673 C   0  0  0  0  0  0  0  0  0  0  0  0
   13.5197    0.4343   60.8599 N   0  0  0  0  0  0  0  0  0  0  0  0
   18.7775   -1.3938   58.7883 C   0  0  0  0  0  0  0  0  0  0  0  0
   20.1124   -1.5789   58.4017 C   0  0  0  0  0  0  0  0  0  0  0  0
   19.8176   -0.1706   56.4330 C   0  0  0  0  0  0  0  0  0  0  0  0
   17.9607   -0.5865   57.9829 C   0  0  0  0  0  0  0  0  0  0  0  0
   18.4986   -0.0084   56.8464 C   0  0  0  0  0  0  0  0  0  0  0  0
   20.6206   -0.9778   57.2455 C   0  0  0  0  0  0  0  0  0  0  0  0
   16.6249   -0.1405   57.9800 C   0  0  0  0  0  0  0  0  0  0  0  0
   16.3532    0.6465   56.9348 N   0  0  0  0  0  0  0  0  0  0  0  0
   17.5413    0.7284   56.2191 O   0  0  0  0  0  0  0  0  0  0  0  0
   21.9030   -1.1773   56.9101 F   0  0  0  0  0  0  0  0  0  0  0  0
   12.4195    0.3169   61.8790 C   0  0  0  0  0  0  0  0  0  0  0  0
   11.3609   -0.6413   61.3604 C   0  0  0  0  0  0  0  0  0  0  0  0
    9.9910   -0.3215   61.9411 C   0  0  0  0  0  0  0  0  0  0  0  0
    9.8361   -1.0227   63.1672 O   0  0  0  0  0  0  0  0  0  0  0  0
    6.9860   -3.2785   62.7119 C   0  0  0  0  0  0  0  0  0  0  0  0
    8.2110   -2.6437   62.5072 C   0  0  0  0  0  0  0  0  0  0  0  0
    6.5990   -1.9034   64.6604 C   0  0  0  0  0  0  0  0  0  0  0  0
    6.1799   -2.9083   63.7885 C   0  0  0  0  0  0  0  0  0  0  0  0
    8.6301   -1.6388   63.3792 C   0  0  0  0  0  0  0  0  0  0  0  0
    7.8241   -1.2687   64.4557 C   0  0  0  0  0  0  0  0  0  0  0  0
    4.9017   -3.5687   64.0005 C   0  0  0  0  0  0  0  0  0  0  0  0
    3.7766   -2.7415   64.5511 C   0  0  0  0  0  0  0  0  0  0  0  0
    4.6733   -4.7575   63.7669 O   0  0  0  0  0  0  0  0  0  0  0  0
    8.1543   -0.5785   66.7074 C   0  0  0  0  0  0  0  0  0  0  0  0
    8.2210   -0.2871   65.3128 O   0  0  0  0  0  0  0  0  0  0  0  0
  7  8  2  0
  7 10  1  0
 21 22  2  0
 21 24  1  0
 22 25  1  0
  8 12  1  0
 23 24  2  0
 23 26  1  0
  9 11  1  0
  9 12  2  0
 10 11  2  0
 10 13  1  0
 24 27  1  0
 11 15  1  0
 25 26  2  0
 25 20  1  0
 26 31  1  0
 12 16  1  0
 13  5  1  0
 13 14  2  0
 27 28  1  0
 27 29  2  0
  1  3  1  0
  1  5  1  0
  2  4  1  0
  2  5  1  0
  3  6  1  0
  4  6  1  0
 30 31  1  0
 18 17  1  0
 18 19  1  0
 17  6  1  0
 19 20  1  0
 14 15  1  0
M  CHG  1   6   1
M  END
>  <minimizedAffinity>  (95) 
-10.18011

>  <CNNscore>  (95) 
0.7113063335

>  <CNNaffinity>  (95) 
6.9539871216

>  <CNN_VS>  (95) 
4.9464149475

>  <CNNaffinity_variance>  (95) 
0.1374341249

>  <salt_bridge_distance>  (95) 
(2.9114603534995958, 2.9114603534995958)

$$$$

     RDKit          3D

 31 34  0  0  0  0  0  0  0  0999 V2000
   15.5920    0.2380   59.7011 C   0  0  0  0  0  0  0  0  0  0  0  0
   14.1495    0.2660   57.6263 C   0  0  0  0  0  0  0  0  0  0  0  0
   14.3476    0.0180   60.5516 C   0  0  0  0  0  0  0  0  0  0  0  0
   12.9161    0.0455   58.4925 C   0  0  0  0  0  0  0  0  0  0  0  0
   15.4105   -0.3210   58.2807 C   0  0  0  0  0  0  0  0  0  0  0  0
   13.1531    0.6335   59.8630 N   0  0  0  0  0  0  0  0  0  0  0  0
   18.6164   -1.2695   58.6219 C   0  0  0  0  0  0  0  0  0  0  0  0
   19.9932   -1.4675   58.4456 C   0  0  0  0  0  0  0  0  0  0  0  0
   19.9978   -0.1488   56.3945 C   0  0  0  0  0  0  0  0  0  0  0  0
   17.9306   -0.5012   57.6696 C   0  0  0  0  0  0  0  0  0  0  0  0
   18.6327    0.0275   56.6006 C   0  0  0  0  0  0  0  0  0  0  0  0
   20.6689   -0.9168   57.3517 C   0  0  0  0  0  0  0  0  0  0  0  0
   16.6115   -0.0598   57.4494 C   0  0  0  0  0  0  0  0  0  0  0  0
   16.5001    0.6792   56.3417 N   0  0  0  0  0  0  0  0  0  0  0  0
   17.7813    0.7329   55.8066 O   0  0  0  0  0  0  0  0  0  0  0  0
   21.9860   -1.1270   57.2189 F   0  0  0  0  0  0  0  0  0  0  0  0
   11.9188    0.5581   60.7194 C   0  0  0  0  0  0  0  0  0  0  0  0
   10.9842    1.6962   60.3469 C   0  0  0  0  0  0  0  0  0  0  0  0
   10.2800    2.2596   61.5729 C   0  0  0  0  0  0  0  0  0  0  0  0
    9.1224    1.4792   61.8376 O   0  0  0  0  0  0  0  0  0  0  0  0
   10.0338   -1.3138   64.0256 C   0  0  0  0  0  0  0  0  0  0  0  0
    9.9800   -0.4725   62.9144 C   0  0  0  0  0  0  0  0  0  0  0  0
    8.4603    0.1105   65.1801 C   0  0  0  0  0  0  0  0  0  0  0  0
    9.2739   -1.0224   65.1584 C   0  0  0  0  0  0  0  0  0  0  0  0
    9.1664    0.6604   62.9360 C   0  0  0  0  0  0  0  0  0  0  0  0
    8.4067    0.9518   64.0688 C   0  0  0  0  0  0  0  0  0  0  0  0
    9.3284   -1.9008   66.3162 C   0  0  0  0  0  0  0  0  0  0  0  0
    8.6873   -1.4172   67.5845 C   0  0  0  0  0  0  0  0  0  0  0  0
    9.8653   -3.0104   66.3365 O   0  0  0  0  0  0  0  0  0  0  0  0
    6.2944    1.8864   64.6351 C   0  0  0  0  0  0  0  0  0  0  0  0
    7.6064    2.0537   64.1014 O   0  0  0  0  0  0  0  0  0  0  0  0
  7  8  2  0
  7 10  1  0
 21 22  2  0
 21 24  1  0
 22 25  1  0
  8 12  1  0
 23 24  2  0
 23 26  1  0
  9 11  1  0
  9 12  2  0
 10 11  2  0
 10 13  1  0
 24 27  1  0
 11 15  1  0
 25 26  2  0
 25 20  1  0
 26 31  1  0
 12 16  1  0
 13  5  1  0
 13 14  2  0
 27 28  1  0
 27 29  2  0
  1  3  1  0
  1  5  1  0
  2  4  1  0
  2  5  1  0
  3  6  1  0
  4  6  1  0
 30 31  1  0
 18 17  1  0
 18 19  1  0
 17  6  1  0
 19 20  1  0
 14 15  1  0
M  CHG  1   6   1
M  END
>  <minimizedAffinity>  (96) 
-9.27110

>  <CNNscore>  (96) 
0.6106445193

>  <CNNaffinity>  (96) 
7.0023488998

>  <CNN_VS>  (96) 
4.2759461403

>  <CNNaffinity_variance>  (96) 
0.1165792122

>  <salt_bridge_distance>  (96) 
(3.312417857094723, 3.312417857094723)

$$$$

     RDKit          3D

 31 34  0  0  0  0  0  0  0  0999 V2000
   15.8965    0.3982   59.6698 C   0  0  0  0  0  0  0  0  0  0  0  0
   14.5043    0.2339   57.5670 C   0  0  0  0  0  0  0  0  0  0  0  0
   14.6411    0.1851   60.5059 C   0  0  0  0  0  0  0  0  0  0  0  0
   13.2596    0.0218   58.4192 C   0  0  0  0  0  0  0  0  0  0  0  0
   15.7706   -0.2590   58.2858 C   0  0  0  0  0  0  0  0  0  0  0  0
   13.4411    0.7067   59.7526 N   0  0  0  0  0  0  0  0  0  0  0  0
   18.9206   -1.4038   58.5317 C   0  0  0  0  0  0  0  0  0  0  0  0
   20.2835   -1.6640   58.3302 C   0  0  0  0  0  0  0  0  0  0  0  0
   20.3519   -0.2042   56.3781 C   0  0  0  0  0  0  0  0  0  0  0  0
   18.2741   -0.5330   57.6423 C   0  0  0  0  0  0  0  0  0  0  0  0
   18.9996    0.0315   56.6078 C   0  0  0  0  0  0  0  0  0  0  0  0
   20.9837   -1.0743   57.2727 C   0  0  0  0  0  0  0  0  0  0  0  0
   16.9804   -0.0053   57.4652 C   0  0  0  0  0  0  0  0  0  0  0  0
   16.9052    0.8161   56.4138 N   0  0  0  0  0  0  0  0  0  0  0  0
   18.1849    0.8375   55.8732 O   0  0  0  0  0  0  0  0  0  0  0  0
   22.2866   -1.3464   57.1141 F   0  0  0  0  0  0  0  0  0  0  0  0
   12.1902    0.6386   60.5854 C   0  0  0  0  0  0  0  0  0  0  0  0
   11.1060   -0.0765   59.7975 C   0  0  0  0  0  0  0  0  0  0  0  0
    9.8823   -0.3498   60.6600 C   0  0  0  0  0  0  0  0  0  0  0  0
   10.1027   -1.5377   61.4080 O   0  0  0  0  0  0  0  0  0  0  0  0
    7.0752   -3.5948   61.5538 C   0  0  0  0  0  0  0  0  0  0  0  0
    8.2068   -2.9473   61.0581 C   0  0  0  0  0  0  0  0  0  0  0  0
    7.5162   -2.6854   63.7483 C   0  0  0  0  0  0  0  0  0  0  0  0
    6.7299   -3.4638   62.8989 C   0  0  0  0  0  0  0  0  0  0  0  0
    8.9931   -2.1688   61.9074 C   0  0  0  0  0  0  0  0  0  0  0  0
    8.6478   -2.0379   63.2524 C   0  0  0  0  0  0  0  0  0  0  0  0
    5.5488   -4.1372   63.4152 C   0  0  0  0  0  0  0  0  0  0  0  0
    4.5644   -3.3125   64.1926 C   0  0  0  0  0  0  0  0  0  0  0  0
    5.2970   -5.3349   63.2671 O   0  0  0  0  0  0  0  0  0  0  0  0
    9.4314   -1.6594   65.4657 C   0  0  0  0  0  0  0  0  0  0  0  0
    9.4063   -1.2786   64.0915 O   0  0  0  0  0  0  0  0  0  0  0  0
  7  8  2  0
  7 10  1  0
 21 22  2  0
 21 24  1  0
 22 25  1  0
  8 12  1  0
 23 24  2  0
 23 26  1  0
  9 11  1  0
  9 12  2  0
 10 11  2  0
 10 13  1  0
 24 27  1  0
 11 15  1  0
 25 26  2  0
 25 20  1  0
 26 31  1  0
 12 16  1  0
 13  5  1  0
 13 14  2  0
 27 28  1  0
 27 29  2  0
  1  3  1  0
  1  5  1  0
  2  4  1  0
  2  5  1  0
  3  6  1  0
  4  6  1  0
 30 31  1  0
 18 17  1  0
 18 19  1  0
 17  6  1  0
 19 20  1  0
 14 15  1  0
M  CHG  1   6   1
M  END
>  <minimizedAffinity>  (97) 
-10.10381

>  <CNNscore>  (97) 
0.5865476131

>  <CNNaffinity>  (97) 
6.6749982834

>  <CNN_VS>  (97) 
3.9152042866

>  <CNNaffinity_variance>  (97) 
0.0461959019

>  <salt_bridge_distance>  (97) 
(3.2717591078806505, 3.2717591078806505)

$$$$

     RDKit          3D

 31 34  0  0  0  0  0  0  0  0999 V2000
   16.0593    0.3490   60.5396 C   0  0  0  0  0  0  0  0  0  0  0  0
   14.3807   -0.2102   58.7350 C   0  0  0  0  0  0  0  0  0  0  0  0
   15.0021    0.0624   61.5982 C   0  0  0  0  0  0  0  0  0  0  0  0
   13.3364   -0.4928   59.8075 C   0  0  0  0  0  0  0  0  0  0  0  0
   15.8055   -0.4581   59.2561 C   0  0  0  0  0  0  0  0  0  0  0  0
   13.6321    0.3436   61.0293 N   0  0  0  0  0  0  0  0  0  0  0  0
   18.9805   -1.4740   58.8311 C   0  0  0  0  0  0  0  0  0  0  0  0
   20.2835   -1.6719   58.3527 C   0  0  0  0  0  0  0  0  0  0  0  0
   19.9030   -0.1683   56.4710 C   0  0  0  0  0  0  0  0  0  0  0  0
   18.1363   -0.6120   58.1158 C   0  0  0  0  0  0  0  0  0  0  0  0
   18.6170    0.0050   56.9741 C   0  0  0  0  0  0  0  0  0  0  0  0
   20.7339   -1.0303   57.1943 C   0  0  0  0  0  0  0  0  0  0  0  0
   16.8149   -0.1357   58.2175 C   0  0  0  0  0  0  0  0  0  0  0  0
   16.4989    0.7045   57.2275 N   0  0  0  0  0  0  0  0  0  0  0  0
   17.6418    0.7918   56.4422 O   0  0  0  0  0  0  0  0  0  0  0  0
   21.9873   -1.2436   56.7697 F   0  0  0  0  0  0  0  0  0  0  0  0
   12.5577    0.2002   62.0724 C   0  0  0  0  0  0  0  0  0  0  0  0
   11.4202    1.1539   61.7496 C   0  0  0  0  0  0  0  0  0  0  0  0
   10.1099    0.4063   61.5481 C   0  0  0  0  0  0  0  0  0  0  0  0
    9.4982    0.8650   60.3504 O   0  0  0  0  0  0  0  0  0  0  0  0
   11.4018    0.9916   57.2233 C   0  0  0  0  0  0  0  0  0  0  0  0
   10.8126    1.3841   58.4251 C   0  0  0  0  0  0  0  0  0  0  0  0
   10.5101   -1.2350   57.5132 C   0  0  0  0  0  0  0  0  0  0  0  0
   11.2506   -0.3179   56.7673 C   0  0  0  0  0  0  0  0  0  0  0  0
   10.0722    0.4670   59.1710 C   0  0  0  0  0  0  0  0  0  0  0  0
    9.9210   -0.8425   58.7150 C   0  0  0  0  0  0  0  0  0  0  0  0
   11.8632   -0.7264   55.5132 C   0  0  0  0  0  0  0  0  0  0  0  0
   13.1508   -0.0614   55.1214 C   0  0  0  0  0  0  0  0  0  0  0  0
   11.4030   -1.5738   54.7451 O   0  0  0  0  0  0  0  0  0  0  0  0
    7.8414   -1.9488   59.0427 C   0  0  0  0  0  0  0  0  0  0  0  0
    9.1983   -1.7469   59.4331 O   0  0  0  0  0  0  0  0  0  0  0  0
  7  8  2  0
  7 10  1  0
 21 22  2  0
 21 24  1  0
 22 25  1  0
  8 12  1  0
 23 24  2  0
 23 26  1  0
  9 11  1  0
  9 12  2  0
 10 11  2  0
 10 13  1  0
 24 27  1  0
 11 15  1  0
 25 26  2  0
 25 20  1  0
 26 31  1  0
 12 16  1  0
 13  5  1  0
 13 14  2  0
 27 28  1  0
 27 29  2  0
  1  3  1  0
  1  5  1  0
  2  4  1  0
  2  5  1  0
  3  6  1  0
  4  6  1  0
 30 31  1  0
 18 17  1  0
 18 19  1  0
 17  6  1  0
 19 20  1  0
 14 15  1  0
M  CHG  1   6   1
M  END
>  <minimizedAffinity>  (98) 
-9.40116

>  <CNNscore>  (98) 
0.5843640566

>  <CNNaffinity>  (98) 
7.4686250687

>  <CNN_VS>  (98) 
4.3643960953

>  <CNNaffinity_variance>  (98) 
0.0432550982

>  <salt_bridge_distance>  (98) 
(2.9262911440934922, 2.9262911440934922)

$$$$

     RDKit          3D

 31 34  0  0  0  0  0  0  0  0999 V2000
   15.7164    0.1412   60.7423 C   0  0  0  0  0  0  0  0  0  0  0  0
   13.8747   -0.0516   59.0225 C   0  0  0  0  0  0  0  0  0  0  0  0
   14.7156   -0.2019   61.8383 C   0  0  0  0  0  0  0  0  0  0  0  0
   12.8880   -0.3936   60.1315 C   0  0  0  0  0  0  0  0  0  0  0  0
   15.3066   -0.4705   59.3928 C   0  0  0  0  0  0  0  0  0  0  0  0
   13.3375    0.2520   61.4204 N   0  0  0  0  0  0  0  0  0  0  0  0
   18.5160   -1.3150   58.8632 C   0  0  0  0  0  0  0  0  0  0  0  0
   19.8119   -1.4417   58.3433 C   0  0  0  0  0  0  0  0  0  0  0  0
   19.2934    0.0467   56.4826 C   0  0  0  0  0  0  0  0  0  0  0  0
   17.6052   -0.4963   58.1794 C   0  0  0  0  0  0  0  0  0  0  0  0
   18.0165    0.1497   57.0266 C   0  0  0  0  0  0  0  0  0  0  0  0
   20.1911   -0.7727   57.1749 C   0  0  0  0  0  0  0  0  0  0  0  0
   16.2644   -0.0911   58.3249 C   0  0  0  0  0  0  0  0  0  0  0  0
   15.8734    0.7349   57.3499 N   0  0  0  0  0  0  0  0  0  0  0  0
   16.9847    0.8856   56.5297 O   0  0  0  0  0  0  0  0  0  0  0  0
   21.4400   -0.9177   56.7101 F   0  0  0  0  0  0  0  0  0  0  0  0
   12.3305    0.0538   62.5201 C   0  0  0  0  0  0  0  0  0  0  0  0
   11.5002    1.3173   62.6684 C   0  0  0  0  0  0  0  0  0  0  0  0
   10.0183    0.9952   62.7967 C   0  0  0  0  0  0  0  0  0  0  0  0
    9.3302    1.5433   61.6809 O   0  0  0  0  0  0  0  0  0  0  0  0
    9.2429   -1.1334   59.1815 C   0  0  0  0  0  0  0  0  0  0  0  0
    9.1053   -0.4551   60.3926 C   0  0  0  0  0  0  0  0  0  0  0  0
   10.1106    0.8745   58.1556 C   0  0  0  0  0  0  0  0  0  0  0  0
    9.7456   -0.4686   58.0630 C   0  0  0  0  0  0  0  0  0  0  0  0
    9.4703    0.8880   60.4851 C   0  0  0  0  0  0  0  0  0  0  0  0
    9.9729    1.5527   59.3666 C   0  0  0  0  0  0  0  0  0  0  0  0
    9.8910   -1.1765   56.8010 C   0  0  0  0  0  0  0  0  0  0  0  0
   11.1240   -0.9019   55.9899 C   0  0  0  0  0  0  0  0  0  0  0  0
    9.0764   -1.9813   56.3444 O   0  0  0  0  0  0  0  0  0  0  0  0
   11.7311    3.1536   59.4076 C   0  0  0  0  0  0  0  0  0  0  0  0
   10.3352    2.8636   59.4448 O   0  0  0  0  0  0  0  0  0  0  0  0
  7  8  2  0
  7 10  1  0
 21 22  2  0
 21 24  1  0
 22 25  1  0
  8 12  1  0
 23 24  2  0
 23 26  1  0
  9 11  1  0
  9 12  2  0
 10 11  2  0
 10 13  1  0
 24 27  1  0
 11 15  1  0
 25 26  2  0
 25 20  1  0
 26 31  1  0
 12 16  1  0
 13  5  1  0
 13 14  2  0
 27 28  1  0
 27 29  2  0
  1  3  1  0
  1  5  1  0
  2  4  1  0
  2  5  1  0
  3  6  1  0
  4  6  1  0
 30 31  1  0
 18 17  1  0
 18 19  1  0
 17  6  1  0
 19 20  1  0
 14 15  1  0
M  CHG  1   6   1
M  END
>  <minimizedAffinity>  (99) 
-9.65199

>  <CNNscore>  (99) 
0.5604029894

>  <CNNaffinity>  (99) 
7.3137788773

>  <CNN_VS>  (99) 
4.0986633301

>  <CNNaffinity_variance>  (99) 
0.0775582716

>  <salt_bridge_distance>  (99) 
(2.969445337095801, 2.969445337095801)

$$$$

     RDKit          3D

 31 34  0  0  0  0  0  0  0  0999 V2000
   15.9733    0.3428   59.5421 C   0  0  0  0  0  0  0  0  0  0  0  0
   14.5854    0.3382   57.4301 C   0  0  0  0  0  0  0  0  0  0  0  0
   14.7066    0.1391   60.3634 C   0  0  0  0  0  0  0  0  0  0  0  0
   13.3293    0.1342   58.2675 C   0  0  0  0  0  0  0  0  0  0  0  0
   15.8277   -0.2398   58.1270 C   0  0  0  0  0  0  0  0  0  0  0  0
   13.5318    0.7447   59.6336 N   0  0  0  0  0  0  0  0  0  0  0  0
   18.9755   -1.3741   58.4403 C   0  0  0  0  0  0  0  0  0  0  0  0
   20.3421   -1.6339   58.2648 C   0  0  0  0  0  0  0  0  0  0  0  0
   20.4398   -0.2005   56.2946 C   0  0  0  0  0  0  0  0  0  0  0  0
   18.3420   -0.5168   57.5287 C   0  0  0  0  0  0  0  0  0  0  0  0
   19.0834    0.0353   56.4987 C   0  0  0  0  0  0  0  0  0  0  0  0
   21.0585   -1.0570   57.2111 C   0  0  0  0  0  0  0  0  0  0  0  0
   17.0504    0.0055   57.3231 C   0  0  0  0  0  0  0  0  0  0  0  0
   16.9909    0.8125   56.2596 N   0  0  0  0  0  0  0  0  0  0  0  0
   18.2794    0.8295   55.7399 O   0  0  0  0  0  0  0  0  0  0  0  0
   22.3644   -1.3283   57.0778 F   0  0  0  0  0  0  0  0  0  0  0  0
   12.2754    0.6857   60.4588 C   0  0  0  0  0  0  0  0  0  0  0  0
   12.2748   -0.5965   61.2735 C   0  0  0  0  0  0  0  0  0  0  0  0
   10.8819   -0.9235   61.7921 C   0  0  0  0  0  0  0  0  0  0  0  0
   10.8028   -0.5548   63.1621 O   0  0  0  0  0  0  0  0  0  0  0  0
    7.8165    1.3838   64.0237 C   0  0  0  0  0  0  0  0  0  0  0  0
    9.0806    1.0579   63.5324 C   0  0  0  0  0  0  0  0  0  0  0  0
    7.5090   -0.9004   64.7481 C   0  0  0  0  0  0  0  0  0  0  0  0
    7.0307    0.4047   64.6316 C   0  0  0  0  0  0  0  0  0  0  0  0
    9.5589   -0.2472   63.6489 C   0  0  0  0  0  0  0  0  0  0  0  0
    8.7731   -1.2263   64.2567 C   0  0  0  0  0  0  0  0  0  0  0  0
    5.7136    0.7451   65.1457 C   0  0  0  0  0  0  0  0  0  0  0  0
    4.8461    1.6304   64.2988 C   0  0  0  0  0  0  0  0  0  0  0  0
    5.2572    0.3659   66.2264 O   0  0  0  0  0  0  0  0  0  0  0  0
    8.5034   -3.5205   63.6909 C   0  0  0  0  0  0  0  0  0  0  0  0
    9.2299   -2.5039   64.3788 O   0  0  0  0  0  0  0  0  0  0  0  0
  7  8  2  0
  7 10  1  0
 21 22  2  0
 21 24  1  0
 22 25  1  0
  8 12  1  0
 23 24  2  0
 23 26  1  0
  9 11  1  0
  9 12  2  0
 10 11  2  0
 10 13  1  0
 24 27  1  0
 11 15  1  0
 25 26  2  0
 25 20  1  0
 26 31  1  0
 12 16  1  0
 13  5  1  0
 13 14  2  0
 27 28  1  0
 27 29  2  0
  1  3  1  0
  1  5  1  0
  2  4  1  0
  2  5  1  0
  3  6  1  0
  4  6  1  0
 30 31  1  0
 18 17  1  0
 18 19  1  0
 17  6  1  0
 19 20  1  0
 14 15  1  0
M  CHG  1   6   1
M  END
>  <minimizedAffinity>  (100) 
-8.54465

>  <CNNscore>  (100) 
0.5319959521

>  <CNNaffinity>  (100) 
6.7029647827

>  <CNN_VS>  (100) 
3.5659501553

>  <CNNaffinity_variance>  (100) 
0.1768548936

>  <salt_bridge_distance>  (100) 
(3.311534914507167, 3.311534914507167)

$$$$

     RDKit          3D

 31 34  0  0  0  0  0  0  0  0999 V2000
   15.7849    0.4354   59.5373 C   0  0  0  0  0  0  0  0  0  0  0  0
   14.4442    0.2755   57.4011 C   0  0  0  0  0  0  0  0  0  0  0  0
   14.5071    0.2379   60.3427 C   0  0  0  0  0  0  0  0  0  0  0  0
   13.1766    0.0789   58.2227 C   0  0  0  0  0  0  0  0  0  0  0  0
   15.6873   -0.2264   58.1532 C   0  0  0  0  0  0  0  0  0  0  0  0
   13.3313    0.7677   59.5574 N   0  0  0  0  0  0  0  0  0  0  0  0
   18.8315   -1.3563   58.5151 C   0  0  0  0  0  0  0  0  0  0  0  0
   20.2002   -1.6170   58.3587 C   0  0  0  0  0  0  0  0  0  0  0  0
   20.3213   -0.2014   56.3769 C   0  0  0  0  0  0  0  0  0  0  0  0
   18.2088   -0.5076   57.5882 C   0  0  0  0  0  0  0  0  0  0  0  0
   18.9625    0.0356   56.5623 C   0  0  0  0  0  0  0  0  0  0  0  0
   20.9292   -1.0493   57.3086 C   0  0  0  0  0  0  0  0  0  0  0  0
   16.9196    0.0122   57.3621 C   0  0  0  0  0  0  0  0  0  0  0  0
   16.8728    0.8095   56.2907 N   0  0  0  0  0  0  0  0  0  0  0  0
   18.1675    0.8225   55.7867 O   0  0  0  0  0  0  0  0  0  0  0  0
   22.2367   -1.3212   57.1937 F   0  0  0  0  0  0  0  0  0  0  0  0
   12.0595    0.7151   60.3590 C   0  0  0  0  0  0  0  0  0  0  0  0
   11.1205   -0.3040   59.7363 C   0  0  0  0  0  0  0  0  0  0  0  0
    9.9266   -0.5818   60.6382 C   0  0  0  0  0  0  0  0  0  0  0  0
    9.9363   -1.9547   61.0044 O   0  0  0  0  0  0  0  0  0  0  0  0
    7.5180   -2.6309   63.6715 C   0  0  0  0  0  0  0  0  0  0  0  0
    8.6454   -2.1524   63.0040 C   0  0  0  0  0  0  0  0  0  0  0  0
    6.7482   -3.6663   61.6288 C   0  0  0  0  0  0  0  0  0  0  0  0
    6.5694   -3.3880   62.9839 C   0  0  0  0  0  0  0  0  0  0  0  0
    8.8242   -2.4308   61.6489 C   0  0  0  0  0  0  0  0  0  0  0  0
    7.8756   -3.1877   60.9614 C   0  0  0  0  0  0  0  0  0  0  0  0
    5.3950   -3.8887   63.6804 C   0  0  0  0  0  0  0  0  0  0  0  0
    4.5807   -2.9014   64.4650 C   0  0  0  0  0  0  0  0  0  0  0  0
    5.0202   -5.0631   63.6794 O   0  0  0  0  0  0  0  0  0  0  0  0
    7.0970   -2.8983   58.7329 C   0  0  0  0  0  0  0  0  0  0  0  0
    8.0399   -3.4684   59.6385 O   0  0  0  0  0  0  0  0  0  0  0  0
  7  8  2  0
  7 10  1  0
 21 22  2  0
 21 24  1  0
 22 25  1  0
  8 12  1  0
 23 24  2  0
 23 26  1  0
  9 11  1  0
  9 12  2  0
 10 11  2  0
 10 13  1  0
 24 27  1  0
 11 15  1  0
 25 26  2  0
 25 20  1  0
 26 31  1  0
 12 16  1  0
 13  5  1  0
 13 14  2  0
 27 28  1  0
 27 29  2  0
  1  3  1  0
  1  5  1  0
  2  4  1  0
  2  5  1  0
  3  6  1  0
  4  6  1  0
 30 31  1  0
 18 17  1  0
 18 19  1  0
 17  6  1  0
 19 20  1  0
 14 15  1  0
M  CHG  1   6   1
M  END
>  <minimizedAffinity>  (101) 
-9.89862

>  <CNNscore>  (101) 
0.4796374142

>  <CNNaffinity>  (101) 
6.4633150101

>  <CNN_VS>  (101) 
3.1000475883

>  <CNNaffinity_variance>  (101) 
0.0024384120

>  <salt_bridge_distance>  (101) 
(3.378643713089616, 3.378643713089616)

$$$$

     RDKit          3D

 22 25  0  0  0  0  0  0  0  0999 V2000
   17.8229    0.2576   55.1777 C   0  0  0  0  0  0  0  0  0  0  0  0
   18.0537    0.9545   56.3469 C   0  0  0  0  0  0  0  0  0  0  0  0
   16.5494   -0.2471   54.9314 C   0  0  0  0  0  0  0  0  0  0  0  0
   17.0075    1.1342   57.2499 C   0  0  0  0  0  0  0  0  0  0  0  0
   11.2617   -0.2570   57.4855 C   0  0  0  0  0  0  0  0  0  0  0  0
   12.6673   -0.0596   57.2567 C   0  0  0  0  0  0  0  0  0  0  0  0
   15.4702   -0.0738   55.8380 C   0  0  0  0  0  0  0  0  0  0  0  0
   15.7004    0.6320   57.0243 C   0  0  0  0  0  0  0  0  0  0  0  0
   10.6429   -0.9494   56.4724 C   0  0  0  0  0  0  0  0  0  0  0  0
   13.0573   -0.6061   56.0552 C   0  0  0  0  0  0  0  0  0  0  0  0
   13.5321    0.6404   58.2062 C   0  0  0  0  0  0  0  0  0  0  0  0
    9.2215   -1.3403   56.3570 C   0  0  0  0  0  0  0  0  0  0  0  0
   14.2525   -0.6390   55.4411 N   0  0  0  0  0  0  0  0  0  0  0  0
   14.8205    0.9072   58.0364 N   0  0  0  0  0  0  0  0  0  0  0  0
   11.7368   -1.3647   55.2432 S   0  0  0  0  0  0  0  0  0  0  0  0
   13.0242    0.2482   60.5778 C   0  0  0  0  0  0  0  0  0  0  0  0
   12.3068    2.3484   59.4777 C   0  0  0  0  0  0  0  0  0  0  0  0
   11.6471    0.0901   61.2053 C   0  0  0  0  0  0  0  0  0  0  0  0
   10.9219    2.2143   60.0934 C   0  0  0  0  0  0  0  0  0  0  0  0
    9.7129    1.3829   62.1150 C   0  0  0  0  0  0  0  0  0  0  0  0
   12.9557    1.0494   59.3633 N   0  0  0  0  0  0  0  0  0  0  0  0
   11.0334    1.4603   61.4019 N   0  0  0  0  0  0  0  0  0  0  0  0
  1  2  2  0
  1  3  1  0
  2  4  1  0
  3  7  2  0
  4  8  2  0
  5  6  1  0
  5  9  2  0
  6 10  2  0
  6 11  1  0
  7  8  1  0
  7 13  1  0
  8 14  1  0
  9 12  1  0
  9 15  1  0
 10 13  1  0
 10 15  1  0
 11 21  1  0
 11 14  2  0
 16 18  1  0
 16 21  1  0
 17 19  1  0
 17 21  1  0
 18 22  1  0
 19 22  1  0
 20 22  1  0
M  CHG  2  14   1  22   1
M  END
>  <minimizedAffinity>  (102) 
-7.91238

>  <CNNscore>  (102) 
0.4619377255

>  <CNNaffinity>  (102) 
6.1652212143

>  <CNN_VS>  (102) 
2.8479483128

>  <CNNaffinity_variance>  (102) 
0.1687670052

>  <salt_bridge_distance>  (102) 
(3.4236188660538693, 3.387281868991715)

$$$$

     RDKit          3D

 31 35  0  0  0  0  0  0  0  0999 V2000
   16.0527    0.1926   60.4645 C   0  0  0  0  0  0  0  0  0  0  0  0
   14.2374    0.0035   58.7165 C   0  0  0  0  0  0  0  0  0  0  0  0
   15.0240   -0.0964   61.5501 C   0  0  0  0  0  0  0  0  0  0  0  0
   13.2226   -0.2844   59.8156 C   0  0  0  0  0  0  0  0  0  0  0  0
   15.6510   -0.4425   59.1234 C   0  0  0  0  0  0  0  0  0  0  0  0
   13.6524    0.3802   61.1101 N   0  0  0  0  0  0  0  0  0  0  0  0
   18.8564   -1.3552   58.6926 C   0  0  0  0  0  0  0  0  0  0  0  0
   20.1607   -1.5202   58.2055 C   0  0  0  0  0  0  0  0  0  0  0  0
   19.7061   -0.0889   56.2842 C   0  0  0  0  0  0  0  0  0  0  0  0
   17.9740   -0.5463   57.9616 C   0  0  0  0  0  0  0  0  0  0  0  0
   18.4200    0.0530   56.7966 C   0  0  0  0  0  0  0  0  0  0  0  0
   20.5754   -0.8979   57.0233 C   0  0  0  0  0  0  0  0  0  0  0  0
   16.6371   -0.1153   58.0642 C   0  0  0  0  0  0  0  0  0  0  0  0
   16.2805    0.6826   57.0532 N   0  0  0  0  0  0  0  0  0  0  0  0
   17.4112    0.7873   56.2526 O   0  0  0  0  0  0  0  0  0  0  0  0
   21.8313   -1.0785   56.5909 F   0  0  0  0  0  0  0  0  0  0  0  0
   12.6349    0.2379   62.1815 C   0  0  0  0  0  0  0  0  0  0  0  0
   11.2576    0.5537   61.6349 C   0  0  0  0  0  0  0  0  0  0  0  0
   10.2124   -0.2875   62.3078 C   0  0  0  0  0  0  0  0  0  0  0  0
    9.8153   -0.1921   63.5913 C   0  0  0  0  0  0  0  0  0  0  0  0
    9.5354   -1.3037   61.4432 C   0  0  0  0  0  0  0  0  0  0  0  0
    8.2373   -1.8449   63.4091 C   0  0  0  0  0  0  0  0  0  0  0  0
    7.0453   -4.0835   62.0145 C   0  0  0  0  0  0  0  0  0  0  0  0
    6.2382   -3.3987   63.0945 C   0  0  0  0  0  0  0  0  0  0  0  0
    7.8400   -3.0428   61.2491 C   0  0  0  0  0  0  0  0  0  0  0  0
    7.1793   -2.7212   64.0710 C   0  0  2  0  0  0  0  0  0  0  0  0
   10.4404    0.7675   64.5697 C   0  0  0  0  0  0  0  0  0  0  0  0
    8.8274   -0.9623   64.1531 N   0  0  0  0  0  0  0  0  0  0  0  0
    8.5597   -2.0741   62.0822 N   0  0  0  0  0  0  0  0  0  0  0  0
    9.8452   -1.4084   60.2567 O   0  0  0  0  0  0  0  0  0  0  0  0
    6.3973   -1.9339   64.9562 O   0  0  0  0  0  0  0  0  0  0  0  0
  7  8  2  0
  7 10  1  0
  8 12  1  0
  9 11  1  0
  9 12  2  0
 10 11  2  0
 10 13  1  0
 11 15  1  0
 12 16  1  0
 13  5  1  0
 13 14  2  0
 19 20  2  0
 19 21  1  0
 19 18  1  0
 20 27  1  0
 20 28  1  0
 21 29  1  0
 21 30  2  0
 22 26  1  0
 22 28  2  0
 22 29  1  0
 23 24  1  0
 23 25  1  0
 24 26  1  0
  1  3  1  0
  1  5  1  0
  2  4  1  0
  2  5  1  0
 25 29  1  0
  3  6  1  0
  4  6  1  0
 26 31  1  1
 18 17  1  0
 17  6  1  0
 14 15  1  0
M  CHG  1   6   1
M  END
>  <minimizedAffinity>  (103) 
-11.35978

>  <CNNscore>  (103) 
0.7533615828

>  <CNNaffinity>  (103) 
7.3147249222

>  <CNN_VS>  (103) 
5.5106325150

>  <CNNaffinity_variance>  (103) 
0.1160629839

>  <salt_bridge_distance>  (103) 
(2.866013993336389, 2.866013993336389)

$$$$

     RDKit          3D

 31 35  0  0  0  0  0  0  0  0999 V2000
   15.9135    0.2702   60.3133 C   0  0  0  0  0  0  0  0  0  0  0  0
   14.2692   -0.0085   58.4146 C   0  0  0  0  0  0  0  0  0  0  0  0
   14.7954   -0.0084   61.3097 C   0  0  0  0  0  0  0  0  0  0  0  0
   13.1638   -0.2855   59.4255 C   0  0  0  0  0  0  0  0  0  0  0  0
   15.6477   -0.4124   58.9618 C   0  0  0  0  0  0  0  0  0  0  0  0
   13.4612    0.4259   60.7324 N   0  0  0  0  0  0  0  0  0  0  0  0
   18.8526   -1.4033   58.7618 C   0  0  0  0  0  0  0  0  0  0  0  0
   20.1859   -1.5956   58.3730 C   0  0  0  0  0  0  0  0  0  0  0  0
   19.9166   -0.1241   56.4472 C   0  0  0  0  0  0  0  0  0  0  0  0
   18.0497   -0.5604   57.9793 C   0  0  0  0  0  0  0  0  0  0  0  0
   18.5989    0.0442   56.8621 C   0  0  0  0  0  0  0  0  0  0  0  0
   20.7058   -0.9669   57.2367 C   0  0  0  0  0  0  0  0  0  0  0  0
   16.7202   -0.0956   57.9868 C   0  0  0  0  0  0  0  0  0  0  0  0
   16.4627    0.7265   56.9652 N   0  0  0  0  0  0  0  0  0  0  0  0
   17.6539    0.8132   56.2552 O   0  0  0  0  0  0  0  0  0  0  0  0
   21.9861   -1.1743   56.8985 F   0  0  0  0  0  0  0  0  0  0  0  0
   12.3529    0.2936   61.7109 C   0  0  0  0  0  0  0  0  0  0  0  0
   11.2102    1.2122   61.3287 C   0  0  0  0  0  0  0  0  0  0  0  0
   10.2007    0.4846   60.4893 C   0  0  0  0  0  0  0  0  0  0  0  0
    9.7540    0.8584   59.2748 C   0  0  0  0  0  0  0  0  0  0  0  0
    9.6757   -0.7944   61.0611 C   0  0  0  0  0  0  0  0  0  0  0  0
    8.3950   -0.9699   59.0186 C   0  0  0  0  0  0  0  0  0  0  0  0
    7.0097   -3.2802   60.0773 C   0  0  0  0  0  0  0  0  0  0  0  0
    7.1973   -3.1796   58.5801 C   0  0  0  0  0  0  0  0  0  0  0  0
    8.2480   -2.7476   60.7727 C   0  0  0  0  0  0  0  0  0  0  0  0
    7.3591   -1.7233   58.1912 C   0  0  2  0  0  0  0  0  0  0  0  0
   10.1814    2.1389   58.6067 C   0  0  0  0  0  0  0  0  0  0  0  0
    8.8540    0.1390   58.5283 N   0  0  0  0  0  0  0  0  0  0  0  0
    8.7422   -1.4637   60.2647 N   0  0  0  0  0  0  0  0  0  0  0  0
   10.0758   -1.1907   62.1554 O   0  0  0  0  0  0  0  0  0  0  0  0
    7.7213   -1.6753   56.8196 O   0  0  0  0  0  0  0  0  0  0  0  0
  7  8  2  0
  7 10  1  0
  8 12  1  0
  9 11  1  0
  9 12  2  0
 10 11  2  0
 10 13  1  0
 11 15  1  0
 12 16  1  0
 13  5  1  0
 13 14  2  0
 19 20  2  0
 19 21  1  0
 19 18  1  0
 20 27  1  0
 20 28  1  0
 21 29  1  0
 21 30  2  0
 22 26  1  0
 22 28  2  0
 22 29  1  0
 23 24  1  0
 23 25  1  0
 24 26  1  0
  1  3  1  0
  1  5  1  0
  2  4  1  0
  2  5  1  0
 25 29  1  0
  3  6  1  0
  4  6  1  0
 26 31  1  6
 18 17  1  0
 17  6  1  0
 14 15  1  0
M  CHG  1   6   1
M  END
>  <minimizedAffinity>  (104) 
-11.72280

>  <CNNscore>  (104) 
0.7414482236

>  <CNNaffinity>  (104) 
7.4701986313

>  <CNN_VS>  (104) 
5.5387654305

>  <CNNaffinity_variance>  (104) 
0.0719453245

>  <salt_bridge_distance>  (104) 
(2.976211553300605, 2.976211553300605)

$$$$

     RDKit          3D

 31 35  0  0  0  0  0  0  0  0999 V2000
   15.3606    0.2451   59.8769 C   0  0  0  0  0  0  0  0  0  0  0  0
   13.8968    0.3585   57.8199 C   0  0  0  0  0  0  0  0  0  0  0  0
   14.1215    0.0221   60.7345 C   0  0  0  0  0  0  0  0  0  0  0  0
   12.6690    0.1342   58.6933 C   0  0  0  0  0  0  0  0  0  0  0  0
   15.1541   -0.2691   58.4430 C   0  0  0  0  0  0  0  0  0  0  0  0
   12.9147    0.6768   60.0888 N   0  0  0  0  0  0  0  0  0  0  0  0
   18.3524   -1.2579   58.7377 C   0  0  0  0  0  0  0  0  0  0  0  0
   19.7253   -1.4671   58.5454 C   0  0  0  0  0  0  0  0  0  0  0  0
   19.7265   -0.1090   56.5201 C   0  0  0  0  0  0  0  0  0  0  0  0
   17.6668   -0.4641   57.8064 C   0  0  0  0  0  0  0  0  0  0  0  0
   18.3653    0.0778   56.7417 C   0  0  0  0  0  0  0  0  0  0  0  0
   20.3976   -0.9024   57.4564 C   0  0  0  0  0  0  0  0  0  0  0  0
   16.3506   -0.0045   57.6064 C   0  0  0  0  0  0  0  0  0  0  0  0
   16.2377    0.7570   56.5141 N   0  0  0  0  0  0  0  0  0  0  0  0
   17.5148    0.8074   55.9690 O   0  0  0  0  0  0  0  0  0  0  0  0
   21.7111   -1.1240   57.3080 F   0  0  0  0  0  0  0  0  0  0  0  0
   11.7046    0.5987   60.9450 C   0  0  0  0  0  0  0  0  0  0  0  0
   11.8629   -0.5074   61.9682 C   0  0  0  0  0  0  0  0  0  0  0  0
   10.6337   -0.6222   62.8219 C   0  0  0  0  0  0  0  0  0  0  0  0
   10.3500    0.1107   63.9158 C   0  0  0  0  0  0  0  0  0  0  0  0
    9.6231   -1.6330   62.3797 C   0  0  0  0  0  0  0  0  0  0  0  0
    8.3135   -0.8813   64.2671 C   0  0  0  0  0  0  0  0  0  0  0  0
    6.3939   -2.9933   63.7855 C   0  0  0  0  0  0  0  0  0  0  0  0
    5.9052   -1.7100   64.4189 C   0  0  0  0  0  0  0  0  0  0  0  0
    7.4471   -2.6667   62.7440 C   0  0  0  0  0  0  0  0  0  0  0  0
    7.0603   -1.0265   65.1238 C   0  0  2  0  0  0  0  0  0  0  0  0
   11.2986    1.1361   64.4795 C   0  0  0  0  0  0  0  0  0  0  0  0
    9.1928   -0.0068   64.6451 N   0  0  0  0  0  0  0  0  0  0  0  0
    8.4811   -1.7229   63.1806 N   0  0  0  0  0  0  0  0  0  0  0  0
    9.8259   -2.3066   61.3699 O   0  0  0  0  0  0  0  0  0  0  0  0
    6.6195    0.2566   65.5409 O   0  0  0  0  0  0  0  0  0  0  0  0
  7  8  2  0
  7 10  1  0
  8 12  1  0
  9 11  1  0
  9 12  2  0
 10 11  2  0
 10 13  1  0
 11 15  1  0
 12 16  1  0
 13  5  1  0
 13 14  2  0
 19 20  2  0
 19 21  1  0
 19 18  1  0
 20 27  1  0
 20 28  1  0
 21 29  1  0
 21 30  2  0
 22 26  1  0
 22 28  2  0
 22 29  1  0
 23 24  1  0
 23 25  1  0
 24 26  1  0
  1  3  1  0
  1  5  1  0
  2  4  1  0
  2  5  1  0
 25 29  1  0
  3  6  1  0
  4  6  1  0
 26 31  1  6
 18 17  1  0
 17  6  1  0
 14 15  1  0
M  CHG  1   6   1
M  END
>  <minimizedAffinity>  (105) 
-11.49901

>  <CNNscore>  (105) 
0.6493856311

>  <CNNaffinity>  (105) 
7.1126775742

>  <CNN_VS>  (105) 
4.6188707352

>  <CNNaffinity_variance>  (105) 
0.0521036796

>  <salt_bridge_distance>  (105) 
(3.21265182831878, 3.21265182831878)

$$$$

     RDKit          3D

 31 35  0  0  0  0  0  0  0  0999 V2000
   16.1718    0.3101   60.4766 C   0  0  0  0  0  0  0  0  0  0  0  0
   14.4497   -0.0933   58.6715 C   0  0  0  0  0  0  0  0  0  0  0  0
   15.1103    0.0416   61.5357 C   0  0  0  0  0  0  0  0  0  0  0  0
   13.4015   -0.3591   59.7445 C   0  0  0  0  0  0  0  0  0  0  0  0
   15.8637   -0.4352   59.1678 C   0  0  0  0  0  0  0  0  0  0  0  0
   13.7381    0.4138   61.0060 N   0  0  0  0  0  0  0  0  0  0  0  0
   19.0324   -1.4791   58.7634 C   0  0  0  0  0  0  0  0  0  0  0  0
   20.3356   -1.6910   58.2917 C   0  0  0  0  0  0  0  0  0  0  0  0
   19.9740   -0.1998   56.3964 C   0  0  0  0  0  0  0  0  0  0  0  0
   18.1977   -0.6164   58.0378 C   0  0  0  0  0  0  0  0  0  0  0  0
   18.6875   -0.0124   56.8930 C   0  0  0  0  0  0  0  0  0  0  0  0
   20.7954   -1.0622   57.1298 C   0  0  0  0  0  0  0  0  0  0  0  0
   16.8795   -0.1290   58.1305 C   0  0  0  0  0  0  0  0  0  0  0  0
   16.5740    0.7055   57.1326 N   0  0  0  0  0  0  0  0  0  0  0  0
   17.7205    0.7774   56.3510 O   0  0  0  0  0  0  0  0  0  0  0  0
   22.0487   -1.2888   56.7118 F   0  0  0  0  0  0  0  0  0  0  0  0
   12.6812    0.2911   62.0411 C   0  0  0  0  0  0  0  0  0  0  0  0
   11.3523    0.7597   61.4844 C   0  0  0  0  0  0  0  0  0  0  0  0
   10.3210   -0.3264   61.5839 C   0  0  0  0  0  0  0  0  0  0  0  0
    9.8048   -0.8357   62.7189 C   0  0  0  0  0  0  0  0  0  0  0  0
    9.8063   -0.8595   60.2842 C   0  0  0  0  0  0  0  0  0  0  0  0
    8.3850   -2.2727   61.6353 C   0  0  0  0  0  0  0  0  0  0  0  0
    7.5028   -3.6698   59.2589 C   0  0  0  0  0  0  0  0  0  0  0  0
    6.5511   -3.5742   60.4302 C   0  0  0  0  0  0  0  0  0  0  0  0
    8.2779   -2.3716   59.1379 C   0  0  0  0  0  0  0  0  0  0  0  0
    7.3448   -3.3854   61.7079 C   0  0  2  0  0  0  0  0  0  0  0  0
   10.2624   -0.4060   64.0882 C   0  0  0  0  0  0  0  0  0  0  0  0
    8.8347   -1.8063   62.7583 N   0  0  0  0  0  0  0  0  0  0  0  0
    8.8416   -1.8651   60.3933 N   0  0  0  0  0  0  0  0  0  0  0  0
   10.2280   -0.4052   59.2210 O   0  0  0  0  0  0  0  0  0  0  0  0
    6.4272   -3.1095   62.7552 O   0  0  0  0  0  0  0  0  0  0  0  0
  7  8  2  0
  7 10  1  0
  8 12  1  0
  9 11  1  0
  9 12  2  0
 10 11  2  0
 10 13  1  0
 11 15  1  0
 12 16  1  0
 13  5  1  0
 13 14  2  0
 19 20  2  0
 19 21  1  0
 19 18  1  0
 20 27  1  0
 20 28  1  0
 21 29  1  0
 21 30  2  0
 22 26  1  0
 22 28  2  0
 22 29  1  0
 23 24  1  0
 23 25  1  0
 24 26  1  0
  1  3  1  0
  1  5  1  0
  2  4  1  0
  2  5  1  0
 25 29  1  0
  3  6  1  0
  4  6  1  0
 26 31  1  1
 18 17  1  0
 17  6  1  0
 14 15  1  0
M  CHG  1   6   1
M  END
>  <minimizedAffinity>  (106) 
-10.87884

>  <CNNscore>  (106) 
0.6470974684

>  <CNNaffinity>  (106) 
7.3620185852

>  <CNN_VS>  (106) 
4.7639436722

>  <CNNaffinity_variance>  (106) 
0.1638422757

>  <salt_bridge_distance>  (106) 
(2.857462589431399, 2.857462589431399)

$$$$

     RDKit          3D

 31 35  0  0  0  0  0  0  0  0999 V2000
   16.2017    0.1205   60.3339 C   0  0  0  0  0  0  0  0  0  0  0  0
   14.4265   -0.0279   58.5412 C   0  0  0  0  0  0  0  0  0  0  0  0
   15.1451   -0.1741   61.3909 C   0  0  0  0  0  0  0  0  0  0  0  0
   13.3836   -0.3217   59.6120 C   0  0  0  0  0  0  0  0  0  0  0  0
   15.8261   -0.4923   58.9750 C   0  0  0  0  0  0  0  0  0  0  0  0
   13.7885    0.3210   60.9255 N   0  0  0  0  0  0  0  0  0  0  0  0
   19.0405   -1.4069   58.6213 C   0  0  0  0  0  0  0  0  0  0  0  0
   20.3567   -1.5706   58.1670 C   0  0  0  0  0  0  0  0  0  0  0  0
   19.9541   -0.1257   56.2444 C   0  0  0  0  0  0  0  0  0  0  0  0
   18.1784   -0.5918   57.8731 C   0  0  0  0  0  0  0  0  0  0  0  0
   18.6553    0.0147   56.7242 C   0  0  0  0  0  0  0  0  0  0  0  0
   20.8028   -0.9410   57.0002 C   0  0  0  0  0  0  0  0  0  0  0  0
   16.8398   -0.1594   57.9440 C   0  0  0  0  0  0  0  0  0  0  0  0
   16.5107    0.6459   56.9296 N   0  0  0  0  0  0  0  0  0  0  0  0
   17.6620    0.7543   56.1593 O   0  0  0  0  0  0  0  0  0  0  0  0
   22.0692   -1.1206   56.5993 F   0  0  0  0  0  0  0  0  0  0  0  0
   12.7447    0.1731   61.9706 C   0  0  0  0  0  0  0  0  0  0  0  0
   11.4063   -0.1303   61.3286 C   0  0  0  0  0  0  0  0  0  0  0  0
   10.2786    0.3107   62.2156 C   0  0  0  0  0  0  0  0  0  0  0  0
    9.7237    1.5375   62.2513 C   0  0  0  0  0  0  0  0  0  0  0  0
    9.7085   -0.7379   63.1177 C   0  0  0  0  0  0  0  0  0  0  0  0
    8.1693    0.9797   63.8412 C   0  0  0  0  0  0  0  0  0  0  0  0
    7.1462   -0.7901   65.8902 C   0  0  0  0  0  0  0  0  0  0  0  0
    6.2146    0.2499   65.3094 C   0  0  0  0  0  0  0  0  0  0  0  0
    8.0386   -1.3315   64.7896 C   0  0  0  0  0  0  0  0  0  0  0  0
    7.0300    1.4044   64.7615 C   0  0  2  0  0  0  0  0  0  0  0  0
   10.2276    2.6856   61.4166 C   0  0  0  0  0  0  0  0  0  0  0  0
    8.6674    1.8839   63.0568 N   0  0  0  0  0  0  0  0  0  0  0  0
    8.6546   -0.3139   63.9321 N   0  0  0  0  0  0  0  0  0  0  0  0
   10.1645   -1.8809   63.1000 O   0  0  0  0  0  0  0  0  0  0  0  0
    6.1485    2.2667   64.0585 O   0  0  0  0  0  0  0  0  0  0  0  0
  7  8  2  0
  7 10  1  0
  8 12  1  0
  9 11  1  0
  9 12  2  0
 10 11  2  0
 10 13  1  0
 11 15  1  0
 12 16  1  0
 13  5  1  0
 13 14  2  0
 19 20  2  0
 19 21  1  0
 19 18  1  0
 20 27  1  0
 20 28  1  0
 21 29  1  0
 21 30  2  0
 22 26  1  0
 22 28  2  0
 22 29  1  0
 23 24  1  0
 23 25  1  0
 24 26  1  0
  1  3  1  0
  1  5  1  0
  2  4  1  0
  2  5  1  0
 25 29  1  0
  3  6  1  0
  4  6  1  0
 26 31  1  6
 18 17  1  0
 17  6  1  0
 14 15  1  0
M  CHG  1   6   1
M  END
>  <minimizedAffinity>  (107) 
-10.57463

>  <CNNscore>  (107) 
0.5860506892

>  <CNNaffinity>  (107) 
7.1286897659

>  <CNN_VS>  (107) 
4.1777734756

>  <CNNaffinity_variance>  (107) 
0.1288616657

>  <salt_bridge_distance>  (107) 
(2.9679571257011106, 2.9679571257011106)

$$$$

     RDKit          3D

 31 35  0  0  0  0  0  0  0  0999 V2000
   15.5108    0.1313   60.6738 C   0  0  0  0  0  0  0  0  0  0  0  0
   13.6315   -0.1124   59.0019 C   0  0  0  0  0  0  0  0  0  0  0  0
   14.5273   -0.1421   61.8046 C   0  0  0  0  0  0  0  0  0  0  0  0
   12.6625   -0.3843   60.1454 C   0  0  0  0  0  0  0  0  0  0  0  0
   15.0638   -0.5371   59.3636 C   0  0  0  0  0  0  0  0  0  0  0  0
   13.1354    0.3127   61.4074 N   0  0  0  0  0  0  0  0  0  0  0  0
   14.5449    0.3245   56.1571 C   0  0  0  0  0  0  0  0  0  0  0  0
   14.7054    0.6895   54.8129 C   0  0  0  0  0  0  0  0  0  0  0  0
   17.1352    0.6665   55.0173 C   0  0  0  0  0  0  0  0  0  0  0  0
   15.6974    0.1301   56.9325 C   0  0  0  0  0  0  0  0  0  0  0  0
   16.9391    0.3049   56.3468 C   0  0  0  0  0  0  0  0  0  0  0  0
   15.9775    0.8569   54.2558 C   0  0  0  0  0  0  0  0  0  0  0  0
   16.0053   -0.2252   58.2601 C   0  0  0  0  0  0  0  0  0  0  0  0
   17.3222   -0.2689   58.4831 N   0  0  0  0  0  0  0  0  0  0  0  0
   17.9106    0.0670   57.2700 O   0  0  0  0  0  0  0  0  0  0  0  0
   16.0898    1.2045   52.9661 F   0  0  0  0  0  0  0  0  0  0  0  0
   12.1612    0.1857   62.5202 C   0  0  0  0  0  0  0  0  0  0  0  0
   10.9619    1.0756   62.2646 C   0  0  0  0  0  0  0  0  0  0  0  0
   10.0777    0.4853   61.2050 C   0  0  0  0  0  0  0  0  0  0  0  0
    9.7572    1.0518   60.0258 C   0  0  0  0  0  0  0  0  0  0  0  0
    9.5352   -0.8792   61.4924 C   0  0  0  0  0  0  0  0  0  0  0  0
    8.4977   -0.7267   59.3145 C   0  0  0  0  0  0  0  0  0  0  0  0
    7.0812   -3.2020   59.8080 C   0  0  0  0  0  0  0  0  0  0  0  0
    7.4316   -2.8480   58.3802 C   0  0  0  0  0  0  0  0  0  0  0  0
    8.2153   -2.7763   60.7208 C   0  0  0  0  0  0  0  0  0  0  0  0
    7.5868   -1.3448   58.2593 C   0  0  2  0  0  0  0  0  0  0  0  0
   10.2133    2.4326   59.6331 C   0  0  0  0  0  0  0  0  0  0  0  0
    8.9712    0.4555   59.0712 N   0  0  0  0  0  0  0  0  0  0  0  0
    8.7197   -1.4182   60.4933 N   0  0  0  0  0  0  0  0  0  0  0  0
    9.8236   -1.4483   62.5448 O   0  0  0  0  0  0  0  0  0  0  0  0
    8.0983   -1.0613   56.9660 O   0  0  0  0  0  0  0  0  0  0  0  0
  7  8  2  0
  7 10  1  0
  8 12  1  0
  9 11  1  0
  9 12  2  0
 10 11  2  0
 10 13  1  0
 11 15  1  0
 12 16  1  0
 13  5  1  0
 13 14  2  0
 19 20  2  0
 19 21  1  0
 19 18  1  0
 20 27  1  0
 20 28  1  0
 21 29  1  0
 21 30  2  0
 22 26  1  0
 22 28  2  0
 22 29  1  0
 23 24  1  0
 23 25  1  0
 24 26  1  0
  1  3  1  0
  1  5  1  0
  2  4  1  0
  2  5  1  0
 25 29  1  0
  3  6  1  0
  4  6  1  0
 26 31  1  6
 18 17  1  0
 17  6  1  0
 14 15  1  0
M  CHG  1   6   1
M  END
>  <minimizedAffinity>  (108) 
-10.65555

>  <CNNscore>  (108) 
0.5741022825

>  <CNNaffinity>  (108) 
7.4185876846

>  <CNN_VS>  (108) 
4.2590279579

>  <CNNaffinity_variance>  (108) 
0.0528432727

>  <salt_bridge_distance>  (108) 
(2.9617805472384338, 2.9617805472384338)

$$$$

     RDKit          3D

 31 35  0  0  0  0  0  0  0  0999 V2000
   15.6966    0.4600   59.6133 C   0  0  0  0  0  0  0  0  0  0  0  0
   14.3202    0.2269   57.5066 C   0  0  0  0  0  0  0  0  0  0  0  0
   14.4390    0.2484   60.4467 C   0  0  0  0  0  0  0  0  0  0  0  0
   13.0733    0.0168   58.3562 C   0  0  0  0  0  0  0  0  0  0  0  0
   15.5887   -0.2309   58.2443 C   0  0  0  0  0  0  0  0  0  0  0  0
   13.2200    0.7342   59.6851 N   0  0  0  0  0  0  0  0  0  0  0  0
   18.7549   -1.3176   58.5406 C   0  0  0  0  0  0  0  0  0  0  0  0
   20.1231   -1.5608   58.3549 C   0  0  0  0  0  0  0  0  0  0  0  0
   20.1817   -0.1512   56.3659 C   0  0  0  0  0  0  0  0  0  0  0  0
   18.1008   -0.4807   57.6246 C   0  0  0  0  0  0  0  0  0  0  0  0
   18.8243    0.0685   56.5805 C   0  0  0  0  0  0  0  0  0  0  0  0
   20.8212   -0.9874   57.2869 C   0  0  0  0  0  0  0  0  0  0  0  0
   16.8000    0.0211   57.4253 C   0  0  0  0  0  0  0  0  0  0  0  0
   16.7190    0.8136   56.3524 N   0  0  0  0  0  0  0  0  0  0  0  0
   18.0020    0.8418   55.8198 O   0  0  0  0  0  0  0  0  0  0  0  0
   22.1294   -1.2423   57.1440 F   0  0  0  0  0  0  0  0  0  0  0  0
   11.9816    0.6682   60.5008 C   0  0  0  0  0  0  0  0  0  0  0  0
   12.0561   -0.4985   61.4646 C   0  0  0  0  0  0  0  0  0  0  0  0
   10.8035   -0.5904   62.2865 C   0  0  0  0  0  0  0  0  0  0  0  0
    9.7699   -1.4279   62.0758 C   0  0  0  0  0  0  0  0  0  0  0  0
   10.7294    0.3234   63.4688 C   0  0  0  0  0  0  0  0  0  0  0  0
    8.5881   -0.7100   63.9042 C   0  0  0  0  0  0  0  0  0  0  0  0
    8.0951    1.1904   66.0308 C   0  0  0  0  0  0  0  0  0  0  0  0
    7.4722   -0.1833   66.1373 C   0  0  0  0  0  0  0  0  0  0  0  0
    9.4799    1.0653   65.4245 C   0  0  0  0  0  0  0  0  0  0  0  0
    7.3207   -0.7748   64.7497 C   0  0  2  0  0  0  0  0  0  0  0  0
    9.7106   -2.3721   60.9037 C   0  0  0  0  0  0  0  0  0  0  0  0
    8.6584   -1.4997   62.8784 N   0  0  0  0  0  0  0  0  0  0  0  0
    9.5604    0.2209   64.2283 N   0  0  0  0  0  0  0  0  0  0  0  0
   11.6623    1.0866   63.7177 O   0  0  0  0  0  0  0  0  0  0  0  0
    6.9150   -2.1274   64.8935 O   0  0  0  0  0  0  0  0  0  0  0  0
  7  8  2  0
  7 10  1  0
  8 12  1  0
  9 11  1  0
  9 12  2  0
 10 11  2  0
 10 13  1  0
 11 15  1  0
 12 16  1  0
 13  5  1  0
 13 14  2  0
 19 20  2  0
 19 21  1  0
 19 18  1  0
 20 27  1  0
 20 28  1  0
 21 29  1  0
 21 30  2  0
 22 26  1  0
 22 28  2  0
 22 29  1  0
 23 24  1  0
 23 25  1  0
 24 26  1  0
  1  3  1  0
  1  5  1  0
  2  4  1  0
  2  5  1  0
 25 29  1  0
  3  6  1  0
  4  6  1  0
 26 31  1  1
 18 17  1  0
 17  6  1  0
 14 15  1  0
M  CHG  1   6   1
M  END
>  <minimizedAffinity>  (109) 
-11.81953

>  <CNNscore>  (109) 
0.5569205284

>  <CNNaffinity>  (109) 
7.0327529907

>  <CNN_VS>  (109) 
3.9166846275

>  <CNNaffinity_variance>  (109) 
0.0609293468

>  <salt_bridge_distance>  (109) 
(3.337525318256028, 3.337525318256028)

$$$$

     RDKit          3D

 31 35  0  0  0  0  0  0  0  0999 V2000
   15.2072   -0.3434   60.8288 C   0  0  0  0  0  0  0  0  0  0  0  0
   13.4211    0.6896   59.3695 C   0  0  0  0  0  0  0  0  0  0  0  0
   14.1553   -0.6386   61.8904 C   0  0  0  0  0  0  0  0  0  0  0  0
   12.3829    0.3861   60.4421 C   0  0  0  0  0  0  0  0  0  0  0  0
   14.5919   -0.3051   59.4206 C   0  0  0  0  0  0  0  0  0  0  0  0
   13.0343    0.3808   61.8125 N   0  0  0  0  0  0  0  0  0  0  0  0
   14.3603    0.2643   56.1167 C   0  0  0  0  0  0  0  0  0  0  0  0
   14.6363    0.5481   54.7717 C   0  0  0  0  0  0  0  0  0  0  0  0
   17.0166    0.8053   55.2351 C   0  0  0  0  0  0  0  0  0  0  0  0
   15.4299    0.2527   57.0240 C   0  0  0  0  0  0  0  0  0  0  0  0
   16.7066    0.5199   56.5614 C   0  0  0  0  0  0  0  0  0  0  0  0
   15.9406    0.8134   54.3414 C   0  0  0  0  0  0  0  0  0  0  0  0
   15.6176    0.0285   58.4017 C   0  0  0  0  0  0  0  0  0  0  0  0
   16.8978    0.1449   58.7666 N   0  0  0  0  0  0  0  0  0  0  0  0
   17.5847    0.4559   57.5995 O   0  0  0  0  0  0  0  0  0  0  0  0
   16.1646    1.0786   53.0467 F   0  0  0  0  0  0  0  0  0  0  0  0
   12.0444    0.2159   62.9064 C   0  0  0  0  0  0  0  0  0  0  0  0
   10.6876    0.7205   62.4594 C   0  0  0  0  0  0  0  0  0  0  0  0
    9.5940   -0.1754   62.9639 C   0  0  0  0  0  0  0  0  0  0  0  0
    8.9219   -0.0397   64.1232 C   0  0  0  0  0  0  0  0  0  0  0  0
    9.2062   -1.3044   62.0621 C   0  0  0  0  0  0  0  0  0  0  0  0
    7.5620   -1.8468   63.7488 C   0  0  0  0  0  0  0  0  0  0  0  0
    6.8883   -4.2733   62.3222 C   0  0  0  0  0  0  0  0  0  0  0  0
    5.8130   -3.6048   63.1490 C   0  0  0  0  0  0  0  0  0  0  0  0
    7.7418   -3.2094   61.6586 C   0  0  0  0  0  0  0  0  0  0  0  0
    6.4612   -2.7794   64.2428 C   0  0  2  0  0  0  0  0  0  0  0  0
    9.2393    1.0352   65.1295 C   0  0  0  0  0  0  0  0  0  0  0  0
    7.9023   -0.8663   64.5257 N   0  0  0  0  0  0  0  0  0  0  0  0
    8.1819   -2.1253   62.5425 N   0  0  0  0  0  0  0  0  0  0  0  0
    9.7732   -1.4519   60.9798 O   0  0  0  0  0  0  0  0  0  0  0  0
    5.4442   -2.0189   64.8768 O   0  0  0  0  0  0  0  0  0  0  0  0
  7  8  2  0
  7 10  1  0
  8 12  1  0
  9 11  1  0
  9 12  2  0
 10 11  2  0
 10 13  1  0
 11 15  1  0
 12 16  1  0
 13  5  1  0
 13 14  2  0
 19 20  2  0
 19 21  1  0
 19 18  1  0
 20 27  1  0
 20 28  1  0
 21 29  1  0
 21 30  2  0
 22 26  1  0
 22 28  2  0
 22 29  1  0
 23 24  1  0
 23 25  1  0
 24 26  1  0
  1  3  1  0
  1  5  1  0
  2  4  1  0
  2  5  1  0
 25 29  1  0
  3  6  1  0
  4  6  1  0
 26 31  1  6
 18 17  1  0
 17  6  1  0
 14 15  1  0
M  CHG  1   6   1
M  END
>  <minimizedAffinity>  (110) 
-10.07386

>  <CNNscore>  (110) 
0.5081838369

>  <CNNaffinity>  (110) 
6.9688081741

>  <CNN_VS>  (110) 
3.5414357185

>  <CNNaffinity_variance>  (110) 
0.0306382123

>  <salt_bridge_distance>  (110) 
(2.8859244931217445, 2.8859244931217445)

$$$$

     RDKit          3D

 31 35  0  0  0  0  0  0  0  0999 V2000
   16.2496    0.0646   60.0926 C   0  0  0  0  0  0  0  0  0  0  0  0
   14.6048    0.2035   58.1789 C   0  0  0  0  0  0  0  0  0  0  0  0
   15.0930   -0.1632   61.0574 C   0  0  0  0  0  0  0  0  0  0  0  0
   13.4608   -0.0258   59.1584 C   0  0  0  0  0  0  0  0  0  0  0  0
   15.9110   -0.4344   58.6785 C   0  0  0  0  0  0  0  0  0  0  0  0
   13.8351    0.5019   60.5309 N   0  0  0  0  0  0  0  0  0  0  0  0
   19.1123   -1.4567   58.6568 C   0  0  0  0  0  0  0  0  0  0  0  0
   20.4592   -1.6745   58.3339 C   0  0  0  0  0  0  0  0  0  0  0  0
   20.2864   -0.2797   56.3412 C   0  0  0  0  0  0  0  0  0  0  0  0
   18.3515   -0.6400   57.8074 C   0  0  0  0  0  0  0  0  0  0  0  0
   18.9537   -0.0849   56.6918 C   0  0  0  0  0  0  0  0  0  0  0  0
   21.0332   -1.0960   57.1970 C   0  0  0  0  0  0  0  0  0  0  0  0
   17.0273   -0.1652   57.7388 C   0  0  0  0  0  0  0  0  0  0  0  0
   16.8214    0.6171   56.6752 N   0  0  0  0  0  0  0  0  0  0  0  0
   18.0428    0.6662   56.0145 O   0  0  0  0  0  0  0  0  0  0  0  0
   22.3248   -1.3264   56.9230 F   0  0  0  0  0  0  0  0  0  0  0  0
   12.7078    0.4190   61.4932 C   0  0  0  0  0  0  0  0  0  0  0  0
   11.4107    0.7968   60.8074 C   0  0  0  0  0  0  0  0  0  0  0  0
   10.3282   -0.1897   61.1359 C   0  0  0  0  0  0  0  0  0  0  0  0
    9.7534   -1.0582   60.2818 C   0  0  0  0  0  0  0  0  0  0  0  0
    9.8804   -0.2170   62.5632 C   0  0  0  0  0  0  0  0  0  0  0  0
    8.3969   -1.9965   61.8738 C   0  0  0  0  0  0  0  0  0  0  0  0
    7.1563   -1.9850   64.4888 C   0  0  0  0  0  0  0  0  0  0  0  0
    7.1862   -3.2835   63.7143 C   0  0  0  0  0  0  0  0  0  0  0  0
    8.4537   -1.2346   64.2560 C   0  0  0  0  0  0  0  0  0  0  0  0
    7.2896   -2.9818   62.2323 C   0  0  2  0  0  0  0  0  0  0  0  0
   10.0940   -1.1071   58.8154 C   0  0  0  0  0  0  0  0  0  0  0  0
    8.7894   -1.9683   60.6385 N   0  0  0  0  0  0  0  0  0  0  0  0
    8.8772   -1.1457   62.8548 N   0  0  0  0  0  0  0  0  0  0  0  0
   10.3966    0.5387   63.3860 O   0  0  0  0  0  0  0  0  0  0  0  0
    7.5069   -4.2081   61.5512 O   0  0  0  0  0  0  0  0  0  0  0  0
  7  8  2  0
  7 10  1  0
  8 12  1  0
  9 11  1  0
  9 12  2  0
 10 11  2  0
 10 13  1  0
 11 15  1  0
 12 16  1  0
 13  5  1  0
 13 14  2  0
 19 20  2  0
 19 21  1  0
 19 18  1  0
 20 27  1  0
 20 28  1  0
 21 29  1  0
 21 30  2  0
 22 26  1  0
 22 28  2  0
 22 29  1  0
 23 24  1  0
 23 25  1  0
 24 26  1  0
  1  3  1  0
  1  5  1  0
  2  4  1  0
  2  5  1  0
 25 29  1  0
  3  6  1  0
  4  6  1  0
 26 31  1  6
 18 17  1  0
 17  6  1  0
 14 15  1  0
M  CHG  1   6   1
M  END
>  <minimizedAffinity>  (111) 
-10.57719

>  <CNNscore>  (111) 
0.4909210205

>  <CNNaffinity>  (111) 
7.0724592209

>  <CNN_VS>  (111) 
3.4720189571

>  <CNNaffinity_variance>  (111) 
0.1406284273

>  <salt_bridge_distance>  (111) 
(2.9574885342127684, 2.9574885342127684)

$$$$

     RDKit          3D

 31 33  0  0  0  0  0  0  0  0999 V2000
   12.4903    0.0482   59.9287 C   0  0  0  0  0  0  0  0  0  0  0  0
   13.2813    0.4257   61.0103 N   0  0  0  0  0  0  0  0  0  0  0  0
   11.2461    0.7087   59.8344 N   0  0  0  0  0  0  0  0  0  0  0  0
   12.8615   -0.7971   59.1087 O   0  0  0  0  0  0  0  0  0  0  0  0
    8.9535    0.0234   59.3194 C   0  0  0  0  0  0  0  0  0  0  0  0
   10.8755   -0.6311   57.8197 C   0  0  0  0  0  0  0  0  0  0  0  0
    7.9754   -0.3362   58.2099 C   0  0  0  0  0  0  0  0  0  0  0  0
    9.8856   -0.9872   56.7195 C   0  0  0  0  0  0  0  0  0  0  0  0
   10.3177    0.4368   58.7631 C   0  0  0  0  0  0  0  0  0  0  0  0
    8.5505   -2.7739   57.9002 C   0  0  0  0  0  0  0  0  0  0  0  0
    8.5543   -1.3930   57.3020 N   0  0  0  0  0  0  0  0  0  0  0  0
   14.5882   -0.1445   61.2472 C   0  0  0  0  0  0  0  0  0  0  0  0
   15.6881    1.2931   59.5097 C   0  0  0  0  0  0  0  0  0  0  0  0
   16.1553   -1.0773   59.5244 C   0  0  0  0  0  0  0  0  0  0  0  0
   16.5337    1.4529   58.4120 C   0  0  0  0  0  0  0  0  0  0  0  0
   17.0009   -0.9175   58.4267 C   0  0  0  0  0  0  0  0  0  0  0  0
   15.4989    0.0279   60.0660 C   0  0  0  0  0  0  0  0  0  0  0  0
   17.1900    0.3477   57.8705 C   0  0  0  0  0  0  0  0  0  0  0  0
   18.0142    0.5036   56.7986 O   0  0  0  0  0  0  0  0  0  0  0  0
   18.7674   -0.6363   56.3875 C   0  0  0  0  0  0  0  0  0  0  0  0
   20.1090   -1.5082   58.3451 C   0  0  0  0  0  0  0  0  0  0  0  0
   21.2179   -1.1217   56.1273 C   0  0  0  0  0  0  0  0  0  0  0  0
   20.1304   -0.6402   57.0852 C   0  0  0  0  0  0  0  0  0  0  0  0
   10.8244    1.7089   60.8184 C   0  0  0  0  0  0  0  0  0  0  0  0
   11.2129    1.6383   63.2963 C   0  0  0  0  0  0  0  0  0  0  0  0
    9.7431   -0.0010   62.3016 C   0  0  0  0  0  0  0  0  0  0  0  0
   10.9932    1.0731   64.5524 C   0  0  0  0  0  0  0  0  0  0  0  0
    9.5235   -0.5663   63.5577 C   0  0  0  0  0  0  0  0  0  0  0  0
   10.5877    1.1013   62.1709 C   0  0  0  0  0  0  0  0  0  0  0  0
   10.1486   -0.0293   64.6831 C   0  0  0  0  0  0  0  0  0  0  0  0
    9.9397   -0.5739   65.8890 F   0  0  0  0  0  0  0  0  0  0  0  0
 13 15  2  0
 13 17  1  0
 14 16  1  0
 14 17  2  0
 25 27  2  0
 25 29  1  0
 26 28  1  0
 26 29  2  0
 15 18  1  0
 16 18  2  0
 27 30  1  0
 28 30  2  0
 17 12  1  0
 29 24  1  0
 18 19  1  0
 30 31  1  0
  1  2  1  0
  1  3  1  0
  1  4  2  0
  5  7  1  0
  5  9  1  0
  6  8  1  0
  6  9  1  0
  7 11  1  0
  8 11  1  0
  9  3  1  0
 21 23  1  0
 22 23  1  0
 10 11  1  0
 12  2  1  0
 24  3  1  0
 20 23  1  0
 20 19  1  0
M  CHG  1  11   1
M  END
>  <minimizedAffinity>  (112) 
-8.64179

>  <CNNscore>  (112) 
0.3055559099

>  <CNNaffinity>  (112) 
6.6467080116

>  <CNN_VS>  (112) 
2.0309410095

>  <CNNaffinity_variance>  (112) 
0.0605755821

>  <salt_bridge_distance>  (112) 
(2.9137482852847802, 2.9137482852847802)

$$$$

     RDKit          3D

 31 33  0  0  0  0  0  0  0  0999 V2000
    9.7488   -1.7807   60.1248 C   0  0  0  0  0  0  0  0  0  0  0  0
    8.9848   -2.4734   59.1897 N   0  0  0  0  0  0  0  0  0  0  0  0
   10.0773   -0.4545   59.7690 N   0  0  0  0  0  0  0  0  0  0  0  0
   10.1013   -2.2927   61.1917 O   0  0  0  0  0  0  0  0  0  0  0  0
   11.8187   -0.4302   61.4889 C   0  0  0  0  0  0  0  0  0  0  0  0
    9.9402    1.2556   61.5148 C   0  0  0  0  0  0  0  0  0  0  0  0
   12.6014    0.4384   62.4634 C   0  0  0  0  0  0  0  0  0  0  0  0
   10.7342    2.1137   62.4896 C   0  0  0  0  0  0  0  0  0  0  0  0
   10.8541    0.3978   60.6372 C   0  0  0  0  0  0  0  0  0  0  0  0
   10.9828    0.4826   64.3991 C   0  0  0  0  0  0  0  0  0  0  0  0
   11.6712    1.2667   63.3147 N   0  0  0  0  0  0  0  0  0  0  0  0
    8.5528   -3.8362   59.4028 C   0  0  0  0  0  0  0  0  0  0  0  0
    6.0832   -4.1252   59.7391 C   0  0  0  0  0  0  0  0  0  0  0  0
    7.4863   -3.7635   61.6725 C   0  0  0  0  0  0  0  0  0  0  0  0
    4.9618   -4.1934   60.5658 C   0  0  0  0  0  0  0  0  0  0  0  0
    6.3649   -3.8316   62.4991 C   0  0  0  0  0  0  0  0  0  0  0  0
    7.3456   -3.9103   60.2925 C   0  0  0  0  0  0  0  0  0  0  0  0
    5.1027   -4.0466   61.9457 C   0  0  0  0  0  0  0  0  0  0  0  0
    4.0081   -4.1120   62.7521 O   0  0  0  0  0  0  0  0  0  0  0  0
    4.2138   -3.8847   64.1455 C   0  0  0  0  0  0  0  0  0  0  0  0
    4.3322   -1.3761   64.4378 C   0  0  0  0  0  0  0  0  0  0  0  0
    2.1699   -2.4701   63.7855 C   0  0  0  0  0  0  0  0  0  0  0  0
    3.4615   -2.6257   64.5854 C   0  0  0  0  0  0  0  0  0  0  0  0
    9.6491    0.1342   58.4976 C   0  0  0  0  0  0  0  0  0  0  0  0
   11.8273    0.8381   57.4700 C   0  0  0  0  0  0  0  0  0  0  0  0
   10.5628   -0.9321   56.4190 C   0  0  0  0  0  0  0  0  0  0  0  0
   12.8076    0.7230   56.4843 C   0  0  0  0  0  0  0  0  0  0  0  0
   11.5430   -1.0471   55.4333 C   0  0  0  0  0  0  0  0  0  0  0  0
   10.7049    0.0104   57.4373 C   0  0  0  0  0  0  0  0  0  0  0  0
   12.6654   -0.2195   55.4659 C   0  0  0  0  0  0  0  0  0  0  0  0
   13.6053   -0.3281   54.5178 F   0  0  0  0  0  0  0  0  0  0  0  0
 13 15  2  0
 13 17  1  0
 14 16  1  0
 14 17  2  0
 25 27  2  0
 25 29  1  0
 26 28  1  0
 26 29  2  0
 15 18  1  0
 16 18  2  0
 27 30  1  0
 28 30  2  0
 17 12  1  0
 29 24  1  0
 18 19  1  0
 30 31  1  0
  1  2  1  0
  1  3  1  0
  1  4  2  0
  5  7  1  0
  5  9  1  0
  6  8  1  0
  6  9  1  0
  7 11  1  0
  8 11  1  0
  9  3  1  0
 21 23  1  0
 22 23  1  0
 10 11  1  0
 12  2  1  0
 24  3  1  0
 20 23  1  0
 20 19  1  0
M  CHG  1  11   1
M  END
>  <minimizedAffinity>  (113) 
-7.29030

>  <CNNscore>  (113) 
0.2807377279

>  <CNNaffinity>  (113) 
6.3766822815

>  <CNN_VS>  (113) 
1.7901753187

>  <CNNaffinity_variance>  (113) 
0.0329084173

>  <salt_bridge_distance>  (113) 
(3.252286460322954, 3.252286460322954)

$$$$

     RDKit          3D

 31 33  0  0  0  0  0  0  0  0999 V2000
   13.3470   -0.0329   61.3956 C   0  0  0  0  0  0  0  0  0  0  0  0
   13.9486    0.5857   60.3031 N   0  0  0  0  0  0  0  0  0  0  0  0
   11.9771    0.2593   61.5726 N   0  0  0  0  0  0  0  0  0  0  0  0
   13.9707   -0.7900   62.1455 O   0  0  0  0  0  0  0  0  0  0  0  0
    9.7858   -0.6382   62.1922 C   0  0  0  0  0  0  0  0  0  0  0  0
   11.1969    0.6203   63.8644 C   0  0  0  0  0  0  0  0  0  0  0  0
    8.9329   -1.1794   63.3308 C   0  0  0  0  0  0  0  0  0  0  0  0
   10.3350    0.0717   64.9928 C   0  0  0  0  0  0  0  0  0  0  0  0
   11.2086   -0.3132   62.6521 C   0  0  0  0  0  0  0  0  0  0  0  0
    8.0868    0.9891   64.3055 C   0  0  0  0  0  0  0  0  0  0  0  0
    8.9400   -0.2341   64.5065 N   0  0  0  0  0  0  0  0  0  0  0  0
   15.3413    0.3847   59.9725 C   0  0  0  0  0  0  0  0  0  0  0  0
   14.8446   -0.7383   57.7845 C   0  0  0  0  0  0  0  0  0  0  0  0
   16.4542    1.0629   57.8288 C   0  0  0  0  0  0  0  0  0  0  0  0
   15.0404   -0.8794   56.4107 C   0  0  0  0  0  0  0  0  0  0  0  0
   16.6500    0.9218   56.4551 C   0  0  0  0  0  0  0  0  0  0  0  0
   15.5515    0.2330   58.4936 C   0  0  0  0  0  0  0  0  0  0  0  0
   15.9430   -0.0494   55.7460 C   0  0  0  0  0  0  0  0  0  0  0  0
   16.1349   -0.1881   54.4057 O   0  0  0  0  0  0  0  0  0  0  0  0
   15.7922    0.9254   53.5821 C   0  0  0  0  0  0  0  0  0  0  0  0
   13.8998    2.4578   52.9015 C   0  0  0  0  0  0  0  0  0  0  0  0
   13.5171   -0.0156   53.0854 C   0  0  0  0  0  0  0  0  0  0  0  0
   14.2836    1.1789   53.6490 C   0  0  0  0  0  0  0  0  0  0  0  0
   11.2554    1.1609   60.6711 C   0  0  0  0  0  0  0  0  0  0  0  0
   10.7309   -0.6089   58.9715 C   0  0  0  0  0  0  0  0  0  0  0  0
   11.7597    1.4478   58.2306 C   0  0  0  0  0  0  0  0  0  0  0  0
   10.7250   -1.0790   57.6582 C   0  0  0  0  0  0  0  0  0  0  0  0
   11.7539    0.9776   56.9174 C   0  0  0  0  0  0  0  0  0  0  0  0
   11.2481    0.6545   59.2576 C   0  0  0  0  0  0  0  0  0  0  0  0
   11.2366   -0.2858   56.6312 C   0  0  0  0  0  0  0  0  0  0  0  0
   11.2336   -0.7383   55.3704 F   0  0  0  0  0  0  0  0  0  0  0  0
 13 15  2  0
 13 17  1  0
 14 16  1  0
 14 17  2  0
 25 27  2  0
 25 29  1  0
 26 28  1  0
 26 29  2  0
 15 18  1  0
 16 18  2  0
 27 30  1  0
 28 30  2  0
 17 12  1  0
 29 24  1  0
 18 19  1  0
 30 31  1  0
  1  2  1  0
  1  3  1  0
  1  4  2  0
  5  7  1  0
  5  9  1  0
  6  8  1  0
  6  9  1  0
  7 11  1  0
  8 11  1  0
  9  3  1  0
 21 23  1  0
 22 23  1  0
 10 11  1  0
 12  2  1  0
 24  3  1  0
 20 23  1  0
 20 19  1  0
M  CHG  1  11   1
M  END
>  <minimizedAffinity>  (114) 
-9.42331

>  <CNNscore>  (114) 
0.2374150604

>  <CNNaffinity>  (114) 
6.4982810020

>  <CNN_VS>  (114) 
1.5427898169

>  <CNNaffinity_variance>  (114) 
0.5804623961

>  <salt_bridge_distance>  (114) 
(3.4859743056999144, 2.9969739505040733)

$$$$

     RDKit          3D

 31 33  0  0  0  0  0  0  0  0999 V2000
   11.9631   -0.2428   60.9054 C   0  0  0  0  0  0  0  0  0  0  0  0
   13.0515    0.4488   60.3809 N   0  0  0  0  0  0  0  0  0  0  0  0
   10.7229    0.0314   60.2890 N   0  0  0  0  0  0  0  0  0  0  0  0
   12.0833   -1.0451   61.8363 O   0  0  0  0  0  0  0  0  0  0  0  0
    9.4984   -0.8300   62.2254 C   0  0  0  0  0  0  0  0  0  0  0  0
    9.3018   -1.9349   59.9645 C   0  0  0  0  0  0  0  0  0  0  0  0
    8.2524   -1.5718   62.6878 C   0  0  0  0  0  0  0  0  0  0  0  0
    8.0571   -2.6705   60.4409 C   0  0  0  0  0  0  0  0  0  0  0  0
    9.5026   -0.6142   60.7106 C   0  0  0  0  0  0  0  0  0  0  0  0
    9.0297   -3.9535   62.3843 C   0  0  0  0  0  0  0  0  0  0  0  0
    8.0870   -2.8694   61.9361 N   0  0  0  0  0  0  0  0  0  0  0  0
   14.3937    0.2758   60.8888 C   0  0  0  0  0  0  0  0  0  0  0  0
   16.1199   -0.8942   59.4938 C   0  0  0  0  0  0  0  0  0  0  0  0
   15.6590    1.4375   59.0604 C   0  0  0  0  0  0  0  0  0  0  0  0
   17.0690   -0.8965   58.4716 C   0  0  0  0  0  0  0  0  0  0  0  0
   16.6080    1.4352   58.0382 C   0  0  0  0  0  0  0  0  0  0  0  0
   15.4148    0.2729   59.7881 C   0  0  0  0  0  0  0  0  0  0  0  0
   17.3130    0.2681   57.7438 C   0  0  0  0  0  0  0  0  0  0  0  0
   18.2400    0.2660   56.7472 O   0  0  0  0  0  0  0  0  0  0  0  0
   18.9929   -0.9320   56.5633 C   0  0  0  0  0  0  0  0  0  0  0  0
   21.0785   -2.0096   57.5021 C   0  0  0  0  0  0  0  0  0  0  0  0
   21.2635   -0.1219   55.8588 C   0  0  0  0  0  0  0  0  0  0  0  0
   20.4423   -0.7101   57.0042 C   0  0  0  0  0  0  0  0  0  0  0  0
   10.6019    0.9873   59.1854 C   0  0  0  0  0  0  0  0  0  0  0  0
   10.4595   -0.5563   57.2124 C   0  0  0  0  0  0  0  0  0  0  0  0
   12.3635    0.9188   57.4009 C   0  0  0  0  0  0  0  0  0  0  0  0
   10.9736   -1.0677   56.0208 C   0  0  0  0  0  0  0  0  0  0  0  0
   12.8777    0.4074   56.2094 C   0  0  0  0  0  0  0  0  0  0  0  0
   11.1544    0.4370   57.9024 C   0  0  0  0  0  0  0  0  0  0  0  0
   12.1828   -0.5859   55.5194 C   0  0  0  0  0  0  0  0  0  0  0  0
   12.6780   -1.0788   54.3765 F   0  0  0  0  0  0  0  0  0  0  0  0
 13 15  2  0
 13 17  1  0
 14 16  1  0
 14 17  2  0
 25 27  2  0
 25 29  1  0
 26 28  1  0
 26 29  2  0
 15 18  1  0
 16 18  2  0
 27 30  1  0
 28 30  2  0
 17 12  1  0
 29 24  1  0
 18 19  1  0
 30 31  1  0
  1  2  1  0
  1  3  1  0
  1  4  2  0
  5  7  1  0
  5  9  1  0
  6  8  1  0
  6  9  1  0
  7 11  1  0
  8 11  1  0
  9  3  1  0
 21 23  1  0
 22 23  1  0
 10 11  1  0
 12  2  1  0
 24  3  1  0
 20 23  1  0
 20 19  1  0
M  CHG  1  11   1
M  END
>  <minimizedAffinity>  (115) 
-8.05089

>  <CNNscore>  (115) 
0.2339411527

>  <CNNaffinity>  (115) 
6.3656010628

>  <CNN_VS>  (115) 
1.4891760349

>  <CNNaffinity_variance>  (115) 
0.1142393351

>  <salt_bridge_distance>  (115) 
(3.2011115100852088, 3.2011115100852088)

$$$$

     RDKit          3D

 27 29  0  0  0  0  0  0  0  0999 V2000
   13.0779   -0.3494   61.6111 C   0  0  0  0  0  0  0  0  0  0  0  0
   12.8250    0.9184   59.4492 C   0  0  0  0  0  0  0  0  0  0  0  0
   14.4776   -0.7758   61.1898 C   0  0  0  0  0  0  0  0  0  0  0  0
   14.2259    0.4854   59.0389 C   0  0  0  0  0  0  0  0  0  0  0  0
   12.1735   -0.0924   60.4001 C   0  0  0  0  0  0  0  0  0  0  0  0
   15.0666    0.2693   60.2737 N   0  0  0  0  0  0  0  0  0  0  0  0
   10.7959    0.3927   60.8460 C   0  0  1  0  0  0  0  0  0  0  0  0
   10.0522    0.7731   59.6919 O   0  0  0  0  0  0  0  0  0  0  0  0
    9.0484   -2.8833   61.6116 C   0  0  0  0  0  0  0  0  0  0  0  0
    9.7594   -1.8854   60.9452 C   0  0  0  0  0  0  0  0  0  0  0  0
    8.6029   -2.6695   62.9162 C   0  0  0  0  0  0  0  0  0  0  0  0
   10.0253   -0.6739   61.5831 C   0  0  0  0  0  0  0  0  0  0  0  0
    8.8688   -1.4579   63.5542 C   0  0  0  0  0  0  0  0  0  0  0  0
    9.5800   -0.4601   62.8877 C   0  0  0  0  0  0  0  0  0  0  0  0
    9.0943   -1.9839   65.8625 C   0  0  0  0  0  0  0  0  0  0  0  0
    8.4279   -1.2625   64.8283 O   0  0  0  0  0  0  0  0  0  0  0  0
   11.0082    0.7830   64.3266 C   0  0  0  0  0  0  0  0  0  0  0  0
    9.8377    0.7229   63.5152 O   0  0  0  0  0  0  0  0  0  0  0  0
   16.4960   -0.0417   59.9241 C   0  0  0  0  0  0  0  0  0  0  0  0
   16.6934   -0.0039   58.4121 C   0  0  0  0  0  0  0  0  0  0  0  0
   18.5481   -0.0348   56.7224 C   0  0  0  0  0  0  0  0  0  0  0  0
   18.8469   -1.2301   58.8007 C   0  0  0  0  0  0  0  0  0  0  0  0
   19.8193   -0.4342   56.3099 C   0  0  0  0  0  0  0  0  0  0  0  0
   20.1182   -1.6295   58.3881 C   0  0  0  0  0  0  0  0  0  0  0  0
   18.0619   -0.4328   57.9678 C   0  0  0  0  0  0  0  0  0  0  0  0
   20.6043   -1.2315   57.1427 C   0  0  0  0  0  0  0  0  0  0  0  0
   21.8241   -1.6173   56.7455 F   0  0  0  0  0  0  0  0  0  0  0  0
  9 10  2  0
  9 11  1  0
 10 12  1  0
 21 23  2  0
 21 25  1  0
 22 24  1  0
 22 25  2  0
 11 13  2  0
 23 26  1  0
 24 26  2  0
 25 20  1  0
 12 14  2  0
 12  7  1  0
 13 14  1  0
 13 16  1  0
 14 18  1  0
 26 27  1  0
  1  3  1  0
  1  5  1  0
  2  4  1  0
  2  5  1  0
  3  6  1  0
  4  6  1  0
  5  7  1  0
 15 16  1  0
 17 18  1  0
 20 19  1  0
 19  6  1  0
  7  8  1  6
M  CHG  1   6   1
M  END
>  <minimizedAffinity>  (116) 
-9.60581

>  <CNNscore>  (116) 
0.8061547279

>  <CNNaffinity>  (116) 
6.6303863525

>  <CNN_VS>  (116) 
5.3451170921

>  <CNNaffinity_variance>  (116) 
0.0087369587

>  <salt_bridge_distance>  (116) 
(3.4698307941454436, 3.4698307941454436)

$$$$

     RDKit          3D

 27 29  0  0  0  0  0  0  0  0999 V2000
   13.0814   -0.2634   61.5975 C   0  0  0  0  0  0  0  0  0  0  0  0
   12.8206    0.9068   59.3821 C   0  0  0  0  0  0  0  0  0  0  0  0
   14.4831   -0.7005   61.1942 C   0  0  0  0  0  0  0  0  0  0  0  0
   14.2235    0.4635   58.9902 C   0  0  0  0  0  0  0  0  0  0  0  0
   12.1749   -0.0647   60.3771 C   0  0  0  0  0  0  0  0  0  0  0  0
   15.0661    0.3063   60.2327 N   0  0  0  0  0  0  0  0  0  0  0  0
   10.7950    0.4324   60.8023 C   0  0  1  0  0  0  0  0  0  0  0  0
   10.0553    0.7753   59.6339 O   0  0  0  0  0  0  0  0  0  0  0  0
    9.0598   -2.8249   61.6688 C   0  0  0  0  0  0  0  0  0  0  0  0
    9.7720   -1.8475   60.9739 C   0  0  0  0  0  0  0  0  0  0  0  0
    8.5984   -2.5664   62.9596 C   0  0  0  0  0  0  0  0  0  0  0  0
   10.0230   -0.6116   61.5697 C   0  0  0  0  0  0  0  0  0  0  0  0
    8.8493   -1.3304   63.5554 C   0  0  0  0  0  0  0  0  0  0  0  0
    9.5616   -0.3529   62.8604 C   0  0  0  0  0  0  0  0  0  0  0  0
    7.0555   -1.4913   65.1084 C   0  0  0  0  0  0  0  0  0  0  0  0
    8.3929   -1.0912   64.8165 O   0  0  0  0  0  0  0  0  0  0  0  0
   10.9112    0.9267   64.3426 C   0  0  0  0  0  0  0  0  0  0  0  0
    9.8047    0.8541   63.4468 O   0  0  0  0  0  0  0  0  0  0  0  0
   16.4968   -0.0122   59.8960 C   0  0  0  0  0  0  0  0  0  0  0  0
   16.6956   -0.0294   58.3838 C   0  0  0  0  0  0  0  0  0  0  0  0
   18.8547   -1.2356   58.8075 C   0  0  0  0  0  0  0  0  0  0  0  0
   18.5637   -0.0718   56.7103 C   0  0  0  0  0  0  0  0  0  0  0  0
   20.1321   -1.6310   58.4107 C   0  0  0  0  0  0  0  0  0  0  0  0
   19.8412   -0.4672   56.3136 C   0  0  0  0  0  0  0  0  0  0  0  0
   18.0705   -0.4560   57.9572 C   0  0  0  0  0  0  0  0  0  0  0  0
   20.6254   -1.2469   57.1639 C   0  0  0  0  0  0  0  0  0  0  0  0
   21.8533   -1.6243   56.7840 F   0  0  0  0  0  0  0  0  0  0  0  0
  9 10  2  0
  9 11  1  0
 10 12  1  0
 21 23  2  0
 21 25  1  0
 22 24  1  0
 22 25  2  0
 11 13  2  0
 23 26  1  0
 24 26  2  0
 25 20  1  0
 12 14  2  0
 12  7  1  0
 13 14  1  0
 13 16  1  0
 14 18  1  0
 26 27  1  0
  1  3  1  0
  1  5  1  0
  2  4  1  0
  2  5  1  0
  3  6  1  0
  4  6  1  0
  5  7  1  0
 15 16  1  0
 17 18  1  0
 20 19  1  0
 19  6  1  0
  7  8  1  6
M  CHG  1   6   1
M  END
>  <minimizedAffinity>  (117) 
-9.60223

>  <CNNscore>  (117) 
0.7999756336

>  <CNNaffinity>  (117) 
6.6029839516

>  <CNN_VS>  (117) 
5.2822260857

>  <CNNaffinity_variance>  (117) 
0.0264763050

>  <salt_bridge_distance>  (117) 
(3.4590024848213092, 3.4590024848213092)

$$$$

     RDKit          3D

 27 29  0  0  0  0  0  0  0  0999 V2000
   12.8409   -0.4560   61.4147 C   0  0  0  0  0  0  0  0  0  0  0  0
   12.6658    1.0353   59.3922 C   0  0  0  0  0  0  0  0  0  0  0  0
   14.2610   -0.8275   61.0098 C   0  0  0  0  0  0  0  0  0  0  0  0
   14.0867    0.6561   58.9977 C   0  0  0  0  0  0  0  0  0  0  0  0
   11.9851   -0.0751   60.2009 C   0  0  0  0  0  0  0  0  0  0  0  0
   14.8774    0.3130   60.2368 N   0  0  0  0  0  0  0  0  0  0  0  0
   10.5856    0.3522   60.6375 C   0  0  1  0  0  0  0  0  0  0  0  0
    9.6303   -0.4584   59.9591 O   0  0  0  0  0  0  0  0  0  0  0  0
   10.4817    1.1426   64.3438 C   0  0  0  0  0  0  0  0  0  0  0  0
   10.6679    1.2685   62.9672 C   0  0  0  0  0  0  0  0  0  0  0  0
   10.0057   -0.0556   64.8766 C   0  0  0  0  0  0  0  0  0  0  0  0
   10.3779    0.1966   62.1233 C   0  0  0  0  0  0  0  0  0  0  0  0
    9.7158   -1.1276   64.0326 C   0  0  0  0  0  0  0  0  0  0  0  0
    9.9020   -1.0016   62.6559 C   0  0  0  0  0  0  0  0  0  0  0  0
    9.4745   -2.5006   65.9593 C   0  0  0  0  0  0  0  0  0  0  0  0
    9.2516   -2.2920   64.5662 O   0  0  0  0  0  0  0  0  0  0  0  0
    8.2920   -2.5747   61.8884 C   0  0  0  0  0  0  0  0  0  0  0  0
    9.6172   -2.0522   61.8344 O   0  0  0  0  0  0  0  0  0  0  0  0
   16.3230    0.0487   59.9168 C   0  0  0  0  0  0  0  0  0  0  0  0
   16.4853   -0.2995   58.4406 C   0  0  0  0  0  0  0  0  0  0  0  0
   18.3920   -0.0755   56.8250 C   0  0  0  0  0  0  0  0  0  0  0  0
   18.7356   -1.3232   58.8651 C   0  0  0  0  0  0  0  0  0  0  0  0
   19.7104   -0.3299   56.4474 C   0  0  0  0  0  0  0  0  0  0  0  0
   20.0541   -1.5777   58.4875 C   0  0  0  0  0  0  0  0  0  0  0  0
   17.9046   -0.5722   58.0339 C   0  0  0  0  0  0  0  0  0  0  0  0
   20.5415   -1.0810   57.2785 C   0  0  0  0  0  0  0  0  0  0  0  0
   21.8068   -1.3275   56.9147 F   0  0  0  0  0  0  0  0  0  0  0  0
  9 10  2  0
  9 11  1  0
 10 12  1  0
 21 23  2  0
 21 25  1  0
 22 24  1  0
 22 25  2  0
 11 13  2  0
 23 26  1  0
 24 26  2  0
 25 20  1  0
 12 14  2  0
 12  7  1  0
 13 14  1  0
 13 16  1  0
 14 18  1  0
 26 27  1  0
  1  3  1  0
  1  5  1  0
  2  4  1  0
  2  5  1  0
  3  6  1  0
  4  6  1  0
  5  7  1  0
 15 16  1  0
 17 18  1  0
 20 19  1  0
 19  6  1  0
  7  8  1  6
M  CHG  1   6   1
M  END
>  <minimizedAffinity>  (118) 
-9.56306

>  <CNNscore>  (118) 
0.7303290963

>  <CNNaffinity>  (118) 
6.5509042740

>  <CNN_VS>  (118) 
4.7843160629

>  <CNNaffinity_variance>  (118) 
0.0530169532

>  <salt_bridge_distance>  (118) 
(3.394921088920917, 3.394921088920917)

$$$$

     RDKit          3D

 27 29  0  0  0  0  0  0  0  0999 V2000
   13.1390   -0.6235   61.2755 C   0  0  0  0  0  0  0  0  0  0  0  0
   12.4619    1.0039   59.4760 C   0  0  0  0  0  0  0  0  0  0  0  0
   14.5412   -0.6831   60.6849 C   0  0  0  0  0  0  0  0  0  0  0  0
   13.8674    0.9358   58.8946 C   0  0  0  0  0  0  0  0  0  0  0  0
   12.0878   -0.2886   60.2109 C   0  0  0  0  0  0  0  0  0  0  0  0
   14.8517    0.6232   59.9954 N   0  0  0  0  0  0  0  0  0  0  0  0
   10.6999   -0.1736   60.8374 C   0  0  1  0  0  0  0  0  0  0  0  0
   10.4102    1.2049   61.0512 O   0  0  0  0  0  0  0  0  0  0  0  0
    8.4868   -0.8085   57.8256 C   0  0  0  0  0  0  0  0  0  0  0  0
    9.4755   -0.2791   58.6548 C   0  0  0  0  0  0  0  0  0  0  0  0
    7.6471   -1.8175   58.2976 C   0  0  0  0  0  0  0  0  0  0  0  0
    9.6248   -0.7587   59.9560 C   0  0  0  0  0  0  0  0  0  0  0  0
    7.7964   -2.2971   59.5990 C   0  0  0  0  0  0  0  0  0  0  0  0
    8.7852   -1.7676   60.4282 C   0  0  0  0  0  0  0  0  0  0  0  0
    6.0960   -3.8803   59.0913 C   0  0  0  0  0  0  0  0  0  0  0  0
    6.9696   -3.2827   60.0471 O   0  0  0  0  0  0  0  0  0  0  0  0
    9.2659   -3.6167   61.8444 C   0  0  0  0  0  0  0  0  0  0  0  0
    8.9277   -2.2394   61.6998 O   0  0  0  0  0  0  0  0  0  0  0  0
   16.2708    0.6646   59.4989 C   0  0  0  0  0  0  0  0  0  0  0  0
   16.4526   -0.2972   58.3291 C   0  0  0  0  0  0  0  0  0  0  0  0
   18.7009   -1.2760   58.8609 C   0  0  0  0  0  0  0  0  0  0  0  0
   18.4095   -0.0964   56.7727 C   0  0  0  0  0  0  0  0  0  0  0  0
   20.0348   -1.5220   58.5358 C   0  0  0  0  0  0  0  0  0  0  0  0
   19.7435   -0.3424   56.4476 C   0  0  0  0  0  0  0  0  0  0  0  0
   17.8883   -0.5631   57.9794 C   0  0  0  0  0  0  0  0  0  0  0  0
   20.5562   -1.0553   57.3291 C   0  0  0  0  0  0  0  0  0  0  0  0
   21.8379   -1.2892   57.0180 F   0  0  0  0  0  0  0  0  0  0  0  0
  9 10  2  0
  9 11  1  0
 10 12  1  0
 21 23  2  0
 21 25  1  0
 22 24  1  0
 22 25  2  0
 11 13  2  0
 23 26  1  0
 24 26  2  0
 25 20  1  0
 12 14  2  0
 12  7  1  0
 13 14  1  0
 13 16  1  0
 14 18  1  0
 26 27  1  0
  1  3  1  0
  1  5  1  0
  2  4  1  0
  2  5  1  0
  3  6  1  0
  4  6  1  0
  5  7  1  0
 15 16  1  0
 17 18  1  0
 20 19  1  0
 19  6  1  0
  7  8  1  6
M  CHG  1   6   1
M  END
>  <minimizedAffinity>  (119) 
-9.06244

>  <CNNscore>  (119) 
0.7241890430

>  <CNNaffinity>  (119) 
6.4039397240

>  <CNN_VS>  (119) 
4.6376628876

>  <CNNaffinity_variance>  (119) 
0.0141129224

>  <salt_bridge_distance>  (119) 
(3.2708314982585094, 3.2708314982585094)

$$$$

     RDKit          3D

 27 29  0  0  0  0  0  0  0  0999 V2000
   13.5621   -0.4157   61.7967 C   0  0  0  0  0  0  0  0  0  0  0  0
   12.2662    0.9199   60.0991 C   0  0  0  0  0  0  0  0  0  0  0  0
   14.7128   -0.5440   60.8079 C   0  0  0  0  0  0  0  0  0  0  0  0
   13.4235    0.7846   59.1189 C   0  0  0  0  0  0  0  0  0  0  0  0
   12.2148   -0.2548   61.0830 C   0  0  0  0  0  0  0  0  0  0  0  0
   14.7172    0.6502   59.8847 N   0  0  0  0  0  0  0  0  0  0  0  0
   11.0855   -0.0664   62.0936 C   0  0  1  0  0  0  0  0  0  0  0  0
   10.4952    1.2130   61.8825 O   0  0  0  0  0  0  0  0  0  0  0  0
    8.8807   -2.7605   60.5926 C   0  0  0  0  0  0  0  0  0  0  0  0
    9.8668   -1.7849   60.7387 C   0  0  0  0  0  0  0  0  0  0  0  0
    8.0409   -3.0693   61.6628 C   0  0  0  0  0  0  0  0  0  0  0  0
   10.0133   -1.1181   61.9550 C   0  0  0  0  0  0  0  0  0  0  0  0
    8.1874   -2.4024   62.8792 C   0  0  0  0  0  0  0  0  0  0  0  0
    9.1735   -1.4267   63.0253 C   0  0  0  0  0  0  0  0  0  0  0  0
    6.0041   -3.0161   63.5951 C   0  0  0  0  0  0  0  0  0  0  0  0
    7.3604   -2.7137   63.9160 O   0  0  0  0  0  0  0  0  0  0  0  0
    8.4151    0.2992   64.4750 C   0  0  0  0  0  0  0  0  0  0  0  0
    9.3132   -0.7772   64.2162 O   0  0  0  0  0  0  0  0  0  0  0  0
   15.9073    0.6360   58.9652 C   0  0  0  0  0  0  0  0  0  0  0  0
   16.5756   -0.7350   58.9826 C   0  0  0  0  0  0  0  0  0  0  0  0
   18.0622   -0.1488   57.0480 C   0  0  0  0  0  0  0  0  0  0  0  0
   18.9846   -1.4266   58.8793 C   0  0  0  0  0  0  0  0  0  0  0  0
   19.2978   -0.1830   56.4018 C   0  0  0  0  0  0  0  0  0  0  0  0
   20.2203   -1.4608   58.2330 C   0  0  0  0  0  0  0  0  0  0  0  0
   17.9056   -0.7707   58.2868 C   0  0  0  0  0  0  0  0  0  0  0  0
   20.3769   -0.8390   56.9942 C   0  0  0  0  0  0  0  0  0  0  0  0
   21.5628   -0.8741   56.3724 F   0  0  0  0  0  0  0  0  0  0  0  0
  9 10  2  0
  9 11  1  0
 10 12  1  0
 21 23  2  0
 21 25  1  0
 22 24  1  0
 22 25  2  0
 11 13  2  0
 23 26  1  0
 24 26  2  0
 25 20  1  0
 12 14  2  0
 12  7  1  0
 13 14  1  0
 13 16  1  0
 14 18  1  0
 26 27  1  0
  1  3  1  0
  1  5  1  0
  2  4  1  0
  2  5  1  0
  3  6  1  0
  4  6  1  0
  5  7  1  0
 15 16  1  0
 17 18  1  0
 20 19  1  0
 19  6  1  0
  7  8  1  6
M  CHG  1   6   1
M  END
>  <minimizedAffinity>  (120) 
-9.62374

>  <CNNscore>  (120) 
0.7231884599

>  <CNNaffinity>  (120) 
6.3472142220

>  <CNN_VS>  (120) 
4.5902318954

>  <CNNaffinity_variance>  (120) 
0.0259326100

>  <salt_bridge_distance>  (120) 
(3.2823054047422193, 3.2823054047422193)

$$$$

     RDKit          3D

 27 29  0  0  0  0  0  0  0  0999 V2000
   13.2057   -0.4088   61.2488 C   0  0  0  0  0  0  0  0  0  0  0  0
   12.5599    1.1558   59.3834 C   0  0  0  0  0  0  0  0  0  0  0  0
   14.6026   -0.5298   60.6550 C   0  0  0  0  0  0  0  0  0  0  0  0
   13.9600    1.0266   58.7991 C   0  0  0  0  0  0  0  0  0  0  0  0
   12.1573   -0.0936   60.1755 C   0  0  0  0  0  0  0  0  0  0  0  0
   14.9422    0.7370   59.9079 N   0  0  0  0  0  0  0  0  0  0  0  0
   10.7763    0.0839   60.8027 C   0  0  1  0  0  0  0  0  0  0  0  0
   10.1636    1.2377   60.2343 O   0  0  0  0  0  0  0  0  0  0  0  0
    8.8146   -3.1065   61.3903 C   0  0  0  0  0  0  0  0  0  0  0  0
    9.6405   -2.0020   61.5985 C   0  0  0  0  0  0  0  0  0  0  0  0
    8.2288   -3.3139   60.1414 C   0  0  0  0  0  0  0  0  0  0  0  0
    9.8805   -1.1047   60.5580 C   0  0  0  0  0  0  0  0  0  0  0  0
    8.4689   -2.4166   59.1008 C   0  0  0  0  0  0  0  0  0  0  0  0
    9.2948   -1.3120   59.3091 C   0  0  0  0  0  0  0  0  0  0  0  0
    6.5430   -2.1932   57.7237 C   0  0  0  0  0  0  0  0  0  0  0  0
    7.8905   -2.6312   57.8862 O   0  0  0  0  0  0  0  0  0  0  0  0
   10.3475   -0.8962   57.2175 C   0  0  0  0  0  0  0  0  0  0  0  0
    9.5268   -0.4372   58.2889 O   0  0  0  0  0  0  0  0  0  0  0  0
   16.3591    0.7205   59.4037 C   0  0  0  0  0  0  0  0  0  0  0  0
   16.8047   -0.7101   59.1180 C   0  0  0  0  0  0  0  0  0  0  0  0
   18.2448   -0.1808   57.1326 C   0  0  0  0  0  0  0  0  0  0  0  0
   19.1726   -1.5138   58.9212 C   0  0  0  0  0  0  0  0  0  0  0  0
   19.4526   -0.2686   56.4406 C   0  0  0  0  0  0  0  0  0  0  0  0
   20.3806   -1.6017   58.2291 C   0  0  0  0  0  0  0  0  0  0  0  0
   18.1048   -0.8035   58.3729 C   0  0  0  0  0  0  0  0  0  0  0  0
   20.5206   -0.9790   56.9888 C   0  0  0  0  0  0  0  0  0  0  0  0
   21.6797   -1.0655   56.3230 F   0  0  0  0  0  0  0  0  0  0  0  0
  9 10  2  0
  9 11  1  0
 10 12  1  0
 21 23  2  0
 21 25  1  0
 22 24  1  0
 22 25  2  0
 11 13  2  0
 23 26  1  0
 24 26  2  0
 25 20  1  0
 12 14  2  0
 12  7  1  0
 13 14  1  0
 13 16  1  0
 14 18  1  0
 26 27  1  0
  1  3  1  0
  1  5  1  0
  2  4  1  0
  2  5  1  0
  3  6  1  0
  4  6  1  0
  5  7  1  0
 15 16  1  0
 17 18  1  0
 20 19  1  0
 19  6  1  0
  7  8  1  6
M  CHG  1   6   1
M  END
>  <minimizedAffinity>  (121) 
-9.44054

>  <CNNscore>  (121) 
0.7231621146

>  <CNNaffinity>  (121) 
6.4479546547

>  <CNN_VS>  (121) 
4.6629166603

>  <CNNaffinity_variance>  (121) 
0.0079946052

>  <salt_bridge_distance>  (121) 
(3.264654323201769, 3.264654323201769)

$$$$

     RDKit          3D

 27 29  0  0  0  0  0  0  0  0999 V2000
   12.7078   -0.3677   61.9764 C   0  0  0  0  0  0  0  0  0  0  0  0
   12.0903    0.8259   59.8459 C   0  0  0  0  0  0  0  0  0  0  0  0
   14.1129   -0.5937   61.4350 C   0  0  0  0  0  0  0  0  0  0  0  0
   13.4985    0.5935   59.3153 C   0  0  0  0  0  0  0  0  0  0  0  0
   11.6752   -0.2570   60.8486 C   0  0  0  0  0  0  0  0  0  0  0  0
   14.4645    0.5144   60.4724 N   0  0  0  0  0  0  0  0  0  0  0  0
   10.2856    0.0307   61.4128 C   0  0  1  0  0  0  0  0  0  0  0  0
    9.4205    0.3783   60.3354 O   0  0  0  0  0  0  0  0  0  0  0  0
    8.9141   -3.4431   62.0636 C   0  0  0  0  0  0  0  0  0  0  0  0
    9.4529   -2.3316   61.4157 C   0  0  0  0  0  0  0  0  0  0  0  0
    8.6247   -3.3835   63.4269 C   0  0  0  0  0  0  0  0  0  0  0  0
    9.7025   -1.1605   62.1310 C   0  0  0  0  0  0  0  0  0  0  0  0
    8.8742   -2.2123   64.1422 C   0  0  0  0  0  0  0  0  0  0  0  0
    9.4131   -1.1008   63.4943 C   0  0  0  0  0  0  0  0  0  0  0  0
    9.6344   -2.5201   66.3745 C   0  0  0  0  0  0  0  0  0  0  0  0
    8.5868   -2.1678   65.4731 O   0  0  0  0  0  0  0  0  0  0  0  0
    8.5415    0.8956   64.4484 C   0  0  0  0  0  0  0  0  0  0  0  0
    9.6555    0.0423   64.1975 O   0  0  0  0  0  0  0  0  0  0  0  0
   15.8884    0.4076   60.0000 C   0  0  0  0  0  0  0  0  0  0  0  0
   16.0473   -0.7803   59.0564 C   0  0  0  0  0  0  0  0  0  0  0  0
   15.2693   -0.9276   56.6755 C   0  0  0  0  0  0  0  0  0  0  0  0
   17.1513    0.4940   57.1992 C   0  0  0  0  0  0  0  0  0  0  0  0
   15.3734   -0.5702   55.3313 C   0  0  0  0  0  0  0  0  0  0  0  0
   17.2554    0.8514   55.8548 C   0  0  0  0  0  0  0  0  0  0  0  0
   16.1583   -0.3955   57.6095 C   0  0  0  0  0  0  0  0  0  0  0  0
   16.3664    0.3192   54.9209 C   0  0  0  0  0  0  0  0  0  0  0  0
   16.4681    0.6604   53.6295 F   0  0  0  0  0  0  0  0  0  0  0  0
  9 10  2  0
  9 11  1  0
 10 12  1  0
 21 23  2  0
 21 25  1  0
 22 24  1  0
 22 25  2  0
 11 13  2  0
 23 26  1  0
 24 26  2  0
 25 20  1  0
 12 14  2  0
 12  7  1  0
 13 14  1  0
 13 16  1  0
 14 18  1  0
 26 27  1  0
  1  3  1  0
  1  5  1  0
  2  4  1  0
  2  5  1  0
  3  6  1  0
  4  6  1  0
  5  7  1  0
 15 16  1  0
 17 18  1  0
 20 19  1  0
 19  6  1  0
  7  8  1  6
M  CHG  1   6   1
M  END
>  <minimizedAffinity>  (122) 
-9.22368

>  <CNNscore>  (122) 
0.6161929369

>  <CNNaffinity>  (122) 
6.4588456154

>  <CNN_VS>  (122) 
3.9798951149

>  <CNNaffinity_variance>  (122) 
0.0375129990

>  <salt_bridge_distance>  (122) 
(3.0174264150099823, 3.0174264150099823)

$$$$

     RDKit          3D

 23 26  0  0  0  0  0  0  0  0999 V2000
   12.2533   -1.4048   53.9170 C   0  0  0  0  0  0  0  0  0  0  0  0
   13.2464   -0.9138   53.0761 C   0  0  0  0  0  0  0  0  0  0  0  0
   12.3059   -1.1409   55.2875 C   0  0  0  0  0  0  0  0  0  0  0  0
   14.2840   -0.1524   53.6062 C   0  0  0  0  0  0  0  0  0  0  0  0
   17.5472    0.3788   55.9418 C   0  0  0  0  0  0  0  0  0  0  0  0
   18.4923   -0.1394   56.8210 C   0  0  0  0  0  0  0  0  0  0  0  0
   16.7419   -0.5423   58.4357 C   0  0  0  0  0  0  0  0  0  0  0  0
   15.7701   -0.0135   57.5677 C   0  0  0  0  0  0  0  0  0  0  0  0
   13.3632   -0.4068   55.8489 C   0  0  0  0  0  0  0  0  0  0  0  0
   16.1978    0.4192   56.3111 C   0  0  0  0  0  0  0  0  0  0  0  0
   14.3425    0.0930   54.9839 C   0  0  0  0  0  0  0  0  0  0  0  0
   18.0885   -0.6065   58.0671 C   0  0  0  0  0  0  0  0  0  0  0  0
   14.3583    0.0722   57.9950 C   0  0  0  0  0  0  0  0  0  0  0  0
   13.3178   -0.1646   57.1932 N   0  0  0  0  0  0  0  0  0  0  0  0
   15.3258    0.9565   55.4013 O   0  0  0  0  0  0  0  0  0  0  0  0
   19.2488   -1.2598   59.1580 Cl  0  0  0  0  0  0  0  0  0  0  0  0
   14.8157   -0.3148   60.3777 C   0  0  0  0  0  0  0  0  0  0  0  0
   13.2077    1.4367   59.6831 C   0  0  0  0  0  0  0  0  0  0  0  0
   13.8363   -0.8169   61.4283 C   0  0  0  0  0  0  0  0  0  0  0  0
   12.2105    0.9547   60.7262 C   0  0  0  0  0  0  0  0  0  0  0  0
   12.0435   -0.0688   62.9988 C   0  0  0  0  0  0  0  0  0  0  0  0
   14.1174    0.3669   59.2963 N   0  0  0  0  0  0  0  0  0  0  0  0
   12.9659    0.3355   61.8834 N   0  0  0  0  0  0  0  0  0  0  0  0
  1  2  2  0
  1  3  1  0
  2  4  1  0
  3  9  2  0
  4 11  2  0
  5  6  1  0
  5 10  2  0
  6 12  2  0
  7  8  2  0
  7 12  1  0
  8 10  1  0
  8 13  1  0
  9 11  1  0
  9 14  1  0
 10 15  1  0
 11 15  1  0
 12 16  1  0
 13 22  1  0
 13 14  2  0
 17 19  1  0
 17 22  1  0
 18 20  1  0
 18 22  1  0
 19 23  1  0
 20 23  1  0
 21 23  1  0
M  CHG  2  14   1  23   1
M  END
>  <minimizedAffinity>  (123) 
-8.47629

>  <CNNscore>  (123) 
0.5882738233

>  <CNNaffinity>  (123) 
6.5706605911

>  <CNN_VS>  (123) 
3.8653476238

>  <CNNaffinity_variance>  (123) 
0.1878868043

>  <salt_bridge_distance>  (123) 
(2.9494909086145698, 2.9494909086145698)

$$$$

     RDKit          3D

 23 26  0  0  0  0  0  0  0  0999 V2000
    5.7820   -4.6429   61.3337 C   0  0  0  0  0  0  0  0  0  0  0  0
    5.8325   -5.2116   62.6020 C   0  0  0  0  0  0  0  0  0  0  0  0
    6.6441   -3.5948   61.0040 C   0  0  0  0  0  0  0  0  0  0  0  0
    6.7511   -4.7373   63.5338 C   0  0  0  0  0  0  0  0  0  0  0  0
    8.2901   -1.8878   65.9624 C   0  0  0  0  0  0  0  0  0  0  0  0
    8.2311   -0.6048   66.4965 C   0  0  0  0  0  0  0  0  0  0  0  0
    8.6140    0.3094   64.2940 C   0  0  0  0  0  0  0  0  0  0  0  0
    8.6875   -0.9780   63.7331 C   0  0  0  0  0  0  0  0  0  0  0  0
    7.5529   -3.0759   61.9404 C   0  0  0  0  0  0  0  0  0  0  0  0
    8.4963   -2.0640   64.5894 C   0  0  0  0  0  0  0  0  0  0  0  0
    7.6002   -3.6732   63.2045 C   0  0  0  0  0  0  0  0  0  0  0  0
    8.3870    0.4955   65.6605 C   0  0  0  0  0  0  0  0  0  0  0  0
    8.9607   -1.1469   62.2910 C   0  0  0  0  0  0  0  0  0  0  0  0
    8.3839   -2.0741   61.5233 N   0  0  0  0  0  0  0  0  0  0  0  0
    8.5580   -3.3555   64.1364 O   0  0  0  0  0  0  0  0  0  0  0  0
    8.3047    2.0875   66.3099 Cl  0  0  0  0  0  0  0  0  0  0  0  0
   11.0059    0.2095   62.4058 C   0  0  0  0  0  0  0  0  0  0  0  0
    9.6456    0.1738   60.3360 C   0  0  0  0  0  0  0  0  0  0  0  0
   11.1043    1.7260   62.3317 C   0  0  0  0  0  0  0  0  0  0  0  0
    9.7291    1.6898   60.2383 C   0  0  0  0  0  0  0  0  0  0  0  0
   11.2130    3.6386   60.7284 C   0  0  0  0  0  0  0  0  0  0  0  0
    9.8188   -0.2713   61.7120 N   0  0  0  0  0  0  0  0  0  0  0  0
   11.0175    2.1566   60.8826 N   0  0  0  0  0  0  0  0  0  0  0  0
  1  2  2  0
  1  3  1  0
  2  4  1  0
  3  9  2  0
  4 11  2  0
  5  6  1  0
  5 10  2  0
  6 12  2  0
  7  8  2  0
  7 12  1  0
  8 10  1  0
  8 13  1  0
  9 11  1  0
  9 14  1  0
 10 15  1  0
 11 15  1  0
 12 16  1  0
 13 22  1  0
 13 14  2  0
 17 19  1  0
 17 22  1  0
 18 20  1  0
 18 22  1  0
 19 23  1  0
 20 23  1  0
 21 23  1  0
M  CHG  2  14   1  23   1
M  END
>  <minimizedAffinity>  (124) 
-7.16473

>  <CNNscore>  (124) 
0.4682889879

>  <CNNaffinity>  (124) 
6.1728863716

>  <CNN_VS>  (124) 
2.8906946182

>  <CNNaffinity_variance>  (124) 
0.0206043292

>  <salt_bridge_distance>  (124) 
(3.2459266427323965, 3.2459266427323965)

$$$$

     RDKit          3D

 23 26  0  0  0  0  0  0  0  0999 V2000
   14.0967    1.3146   53.3884 C   0  0  0  0  0  0  0  0  0  0  0  0
   13.5984    0.1516   52.8108 C   0  0  0  0  0  0  0  0  0  0  0  0
   13.9821    1.5142   54.7659 C   0  0  0  0  0  0  0  0  0  0  0  0
   12.9956   -0.8128   53.6132 C   0  0  0  0  0  0  0  0  0  0  0  0
   10.1013   -2.1368   56.1144 C   0  0  0  0  0  0  0  0  0  0  0  0
    8.9083   -1.9160   56.7947 C   0  0  0  0  0  0  0  0  0  0  0  0
    9.9916   -0.1951   58.0979 C   0  0  0  0  0  0  0  0  0  0  0  0
   11.2112   -0.4072   57.4306 C   0  0  0  0  0  0  0  0  0  0  0  0
   13.3447    0.5717   55.5889 C   0  0  0  0  0  0  0  0  0  0  0  0
   11.2323   -1.3715   56.4212 C   0  0  0  0  0  0  0  0  0  0  0  0
   12.8661   -0.5991   54.9913 C   0  0  0  0  0  0  0  0  0  0  0  0
    8.8515   -0.9397   57.7834 C   0  0  0  0  0  0  0  0  0  0  0  0
   12.4096    0.3716   57.8050 C   0  0  0  0  0  0  0  0  0  0  0  0
   13.3080    0.8297   56.9306 N   0  0  0  0  0  0  0  0  0  0  0  0
   12.3758   -1.6541   55.7216 O   0  0  0  0  0  0  0  0  0  0  0  0
    7.3769   -0.6513   58.6234 Cl  0  0  0  0  0  0  0  0  0  0  0  0
   13.4107   -0.1394   59.9897 C   0  0  0  0  0  0  0  0  0  0  0  0
   11.9872    1.8680   59.7071 C   0  0  0  0  0  0  0  0  0  0  0  0
   12.6753   -0.4975   61.2727 C   0  0  0  0  0  0  0  0  0  0  0  0
   11.2363    1.5329   60.9872 C   0  0  0  0  0  0  0  0  0  0  0  0
   11.5103    0.4994   63.2448 C   0  0  0  0  0  0  0  0  0  0  0  0
   12.5733    0.6722   59.1169 N   0  0  0  0  0  0  0  0  0  0  0  0
   12.1583    0.7718   61.9165 N   0  0  0  0  0  0  0  0  0  0  0  0
  1  2  2  0
  1  3  1  0
  2  4  1  0
  3  9  2  0
  4 11  2  0
  5  6  1  0
  5 10  2  0
  6 12  2  0
  7  8  2  0
  7 12  1  0
  8 10  1  0
  8 13  1  0
  9 11  1  0
  9 14  1  0
 10 15  1  0
 11 15  1  0
 12 16  1  0
 13 22  1  0
 13 14  2  0
 17 19  1  0
 17 22  1  0
 18 20  1  0
 18 22  1  0
 19 23  1  0
 20 23  1  0
 21 23  1  0
M  CHG  2  14   1  23   1
M  END
>  <minimizedAffinity>  (125) 
-5.95416

>  <CNNscore>  (125) 
0.3877349794

>  <CNNaffinity>  (125) 
6.1578674316

>  <CNN_VS>  (125) 
2.3876206875

>  <CNNaffinity_variance>  (125) 
0.0796326771

>  <salt_bridge_distance>  (125) 
(2.948472346826404, 2.948472346826404)

$$$$

     RDKit          3D

 23 26  0  0  0  0  0  0  0  0999 V2000
   18.0439    1.6786   56.4546 C   0  0  0  0  0  0  0  0  0  0  0  0
   18.0945    0.5940   55.5853 C   0  0  0  0  0  0  0  0  0  0  0  0
   17.0510    1.7417   57.4347 C   0  0  0  0  0  0  0  0  0  0  0  0
   17.1582   -0.4289   55.7045 C   0  0  0  0  0  0  0  0  0  0  0  0
   13.3957   -1.9161   55.5725 C   0  0  0  0  0  0  0  0  0  0  0  0
   12.0390   -1.7315   55.3268 C   0  0  0  0  0  0  0  0  0  0  0  0
   11.9341   -0.1815   57.1760 C   0  0  0  0  0  0  0  0  0  0  0  0
   13.3019   -0.3596   57.4497 C   0  0  0  0  0  0  0  0  0  0  0  0
   16.0740    0.7394   57.5488 C   0  0  0  0  0  0  0  0  0  0  0  0
   14.0184   -1.2176   56.6132 C   0  0  0  0  0  0  0  0  0  0  0  0
   16.1529   -0.3514   56.6766 C   0  0  0  0  0  0  0  0  0  0  0  0
   11.3085   -0.8584   56.1254 C   0  0  0  0  0  0  0  0  0  0  0  0
   13.9311    0.3438   58.5866 C   0  0  0  0  0  0  0  0  0  0  0  0
   15.1608    0.8621   58.5583 N   0  0  0  0  0  0  0  0  0  0  0  0
   15.3528   -1.4604   56.8063 O   0  0  0  0  0  0  0  0  0  0  0  0
    9.6316   -0.6147   55.8226 Cl  0  0  0  0  0  0  0  0  0  0  0  0
   13.2798   -0.4195   60.8292 C   0  0  0  0  0  0  0  0  0  0  0  0
   12.3152    1.6589   59.8883 C   0  0  0  0  0  0  0  0  0  0  0  0
   11.8985   -0.8748   61.2762 C   0  0  0  0  0  0  0  0  0  0  0  0
   10.9232    1.2274   60.3254 C   0  0  0  0  0  0  0  0  0  0  0  0
    9.6932   -0.0349   62.0956 C   0  0  0  0  0  0  0  0  0  0  0  0
   13.1872    0.5062   59.7084 N   0  0  0  0  0  0  0  0  0  0  0  0
   11.0411    0.3430   61.5489 N   0  0  0  0  0  0  0  0  0  0  0  0
  1  2  2  0
  1  3  1  0
  2  4  1  0
  3  9  2  0
  4 11  2  0
  5  6  1  0
  5 10  2  0
  6 12  2  0
  7  8  2  0
  7 12  1  0
  8 10  1  0
  8 13  1  0
  9 11  1  0
  9 14  1  0
 10 15  1  0
 11 15  1  0
 12 16  1  0
 13 22  1  0
 13 14  2  0
 17 19  1  0
 17 22  1  0
 18 20  1  0
 18 22  1  0
 19 23  1  0
 20 23  1  0
 21 23  1  0
M  CHG  2  14   1  23   1
M  END
>  <minimizedAffinity>  (126) 
-6.25686

>  <CNNscore>  (126) 
0.3752740920

>  <CNNaffinity>  (126) 
6.1376595497

>  <CNN_VS>  (126) 
2.3033046722

>  <CNNaffinity_variance>  (126) 
0.1567456275

>  <salt_bridge_distance>  (126) 
(3.496239585611948, 3.496239585611948)

$$$$

     RDKit          3D

 23 26  0  0  0  0  0  0  0  0999 V2000
    6.3488   -3.7365   59.8024 C   0  0  0  0  0  0  0  0  0  0  0  0
    5.9668   -4.3873   60.9708 C   0  0  0  0  0  0  0  0  0  0  0  0
    7.4187   -2.8390   59.8214 C   0  0  0  0  0  0  0  0  0  0  0  0
    6.6614   -4.1463   62.1525 C   0  0  0  0  0  0  0  0  0  0  0  0
    7.9076   -1.7821   65.1928 C   0  0  0  0  0  0  0  0  0  0  0  0
    7.9051   -0.5470   65.8327 C   0  0  0  0  0  0  0  0  0  0  0  0
    9.0045    0.4275   63.9156 C   0  0  0  0  0  0  0  0  0  0  0  0
    9.0274   -0.8128   63.2532 C   0  0  0  0  0  0  0  0  0  0  0  0
    8.1096   -2.5528   61.0099 C   0  0  0  0  0  0  0  0  0  0  0  0
    8.4471   -1.9014   63.9069 C   0  0  0  0  0  0  0  0  0  0  0  0
    7.7213   -3.2309   62.1703 C   0  0  0  0  0  0  0  0  0  0  0  0
    8.4485    0.5606   65.1909 C   0  0  0  0  0  0  0  0  0  0  0  0
    9.6503   -0.9323   61.9188 C   0  0  0  0  0  0  0  0  0  0  0  0
    9.1664   -1.6896   60.9318 N   0  0  0  0  0  0  0  0  0  0  0  0
    8.4291   -3.1506   63.3447 O   0  0  0  0  0  0  0  0  0  0  0  0
    8.4403    2.0957   65.9698 Cl  0  0  0  0  0  0  0  0  0  0  0  0
   10.8006    0.7938   60.6022 C   0  0  0  0  0  0  0  0  0  0  0  0
   11.9345   -0.2677   62.5318 C   0  0  0  0  0  0  0  0  0  0  0  0
   12.0501    0.6162   59.7524 C   0  0  0  0  0  0  0  0  0  0  0  0
   13.1969   -0.4567   61.7039 C   0  0  0  0  0  0  0  0  0  0  0  0
   14.5451    0.5652   59.8659 C   0  0  0  0  0  0  0  0  0  0  0  0
   10.7571   -0.1872   61.6781 N   0  0  0  0  0  0  0  0  0  0  0  0
   13.2669    0.6318   60.6534 N   0  0  0  0  0  0  0  0  0  0  0  0
  1  2  2  0
  1  3  1  0
  2  4  1  0
  3  9  2  0
  4 11  2  0
  5  6  1  0
  5 10  2  0
  6 12  2  0
  7  8  2  0
  7 12  1  0
  8 10  1  0
  8 13  1  0
  9 11  1  0
  9 14  1  0
 10 15  1  0
 11 15  1  0
 12 16  1  0
 13 22  1  0
 13 14  2  0
 17 19  1  0
 17 22  1  0
 18 20  1  0
 18 22  1  0
 19 23  1  0
 20 23  1  0
 21 23  1  0
M  CHG  2  14   1  23   1
M  END
>  <minimizedAffinity>  (127) 
-7.85835

>  <CNNscore>  (127) 
0.3658508658

>  <CNNaffinity>  (127) 
6.0876836777

>  <CNN_VS>  (127) 
2.2271842957

>  <CNNaffinity_variance>  (127) 
0.1409790516

>  <salt_bridge_distance>  (127) 
(2.8650761961944404, 2.8650761961944404)

$$$$

     RDKit          3D

 23 26  0  0  0  0  0  0  0  0999 V2000
    7.0774   -2.3511   57.4776 C   0  0  0  0  0  0  0  0  0  0  0  0
    6.6279   -3.3142   58.3746 C   0  0  0  0  0  0  0  0  0  0  0  0
    8.1989   -1.5784   57.7873 C   0  0  0  0  0  0  0  0  0  0  0  0
    7.3064   -3.5089   59.5742 C   0  0  0  0  0  0  0  0  0  0  0  0
    8.6175   -2.3253   63.2164 C   0  0  0  0  0  0  0  0  0  0  0  0
    8.6739   -1.3616   64.2179 C   0  0  0  0  0  0  0  0  0  0  0  0
    9.8774    0.0998   62.7182 C   0  0  0  0  0  0  0  0  0  0  0  0
    9.8416   -0.8629   61.6937 C   0  0  0  0  0  0  0  0  0  0  0  0
    8.8762   -1.7322   59.0077 C   0  0  0  0  0  0  0  0  0  0  0  0
    9.1806   -2.0629   61.9622 C   0  0  0  0  0  0  0  0  0  0  0  0
    8.4189   -2.7182   59.8884 C   0  0  0  0  0  0  0  0  0  0  0  0
    9.2990   -0.1450   63.9667 C   0  0  0  0  0  0  0  0  0  0  0  0
   10.4891   -0.5907   60.3938 C   0  0  0  0  0  0  0  0  0  0  0  0
    9.9849   -0.9601   59.2144 N   0  0  0  0  0  0  0  0  0  0  0  0
    9.1009   -3.0634   61.0297 O   0  0  0  0  0  0  0  0  0  0  0  0
    9.3644    1.0583   65.1959 Cl  0  0  0  0  0  0  0  0  0  0  0  0
   11.7308    1.4541   59.8342 C   0  0  0  0  0  0  0  0  0  0  0  0
   12.8411   -0.3819   61.0720 C   0  0  0  0  0  0  0  0  0  0  0  0
   12.9301    1.5717   58.9052 C   0  0  0  0  0  0  0  0  0  0  0  0
   14.0530   -0.2845   60.1574 C   0  0  0  0  0  0  0  0  0  0  0  0
   15.4147    1.3271   58.8200 C   0  0  0  0  0  0  0  0  0  0  0  0
   11.6446    0.1184   60.4089 N   0  0  0  0  0  0  0  0  0  0  0  0
   14.1754    1.1364   59.6484 N   0  0  0  0  0  0  0  0  0  0  0  0
  1  2  2  0
  1  3  1  0
  2  4  1  0
  3  9  2  0
  4 11  2  0
  5  6  1  0
  5 10  2  0
  6 12  2  0
  7  8  2  0
  7 12  1  0
  8 10  1  0
  8 13  1  0
  9 11  1  0
  9 14  1  0
 10 15  1  0
 11 15  1  0
 12 16  1  0
 13 22  1  0
 13 14  2  0
 17 19  1  0
 17 22  1  0
 18 20  1  0
 18 22  1  0
 19 23  1  0
 20 23  1  0
 21 23  1  0
M  CHG  2  14   1  23   1
M  END
>  <minimizedAffinity>  (128) 
-8.65566

>  <CNNscore>  (128) 
0.3419950306

>  <CNNaffinity>  (128) 
5.9722828865

>  <CNN_VS>  (128) 
2.0424909592

>  <CNNaffinity_variance>  (128) 
0.1265764534

>  <salt_bridge_distance>  (128) 
(3.0128130177626327, 3.0128130177626327)

$$$$

     RDKit          3D

 28 31  0  0  0  0  0  0  0  0999 V2000
   14.2405   -0.3647   59.6399 C   0  0  0  0  0  0  0  0  0  0  0  0
   13.6154    0.0116   58.5136 C   0  0  0  0  0  0  0  0  0  0  0  0
   13.6623   -0.1093   60.9966 C   0  0  0  0  0  0  0  0  0  0  0  0
   12.3020    0.7463   58.5331 C   0  0  0  0  0  0  0  0  0  0  0  0
   11.9641    1.3530   59.8955 C   0  0  0  0  0  0  0  0  0  0  0  0
   12.2082    0.3220   60.9698 N   0  0  2  0  0  0  0  0  0  0  0  0
   17.6566    0.7042   55.2847 C   0  0  0  0  0  0  0  0  0  0  0  0
   17.5237    1.2169   56.5913 C   0  0  0  0  0  0  0  0  0  0  0  0
   16.6508   -0.0802   54.7158 C   0  0  0  0  0  0  0  0  0  0  0  0
   16.3819    0.9563   57.3571 C   0  0  0  0  0  0  0  0  0  0  0  0
   15.5366   -0.3228   55.4897 C   0  0  0  0  0  0  0  0  0  0  0  0
   15.3956    0.1793   56.7820 C   0  0  0  0  0  0  0  0  0  0  0  0
   13.5082   -1.0404   56.2798 C   0  0  0  0  0  0  0  0  0  0  0  0
   14.4009   -1.0637   55.1723 N   0  0  0  0  0  0  0  0  0  0  0  0
   14.1545   -0.2505   57.2859 N   0  0  0  0  0  0  0  0  0  0  0  0
   12.4166   -1.5911   56.3368 O   0  0  0  0  0  0  0  0  0  0  0  0
   11.7279    0.7748   62.3185 C   0  0  0  0  0  0  0  0  0  0  0  0
   10.7122    1.8924   62.1364 C   0  0  0  0  0  0  0  0  0  0  0  0
    9.2890    1.3860   62.3769 C   0  0  0  0  0  0  0  0  0  0  0  0
    9.2456   -0.1158   62.6153 C   0  0  0  0  0  0  0  0  0  0  0  0
    9.3619   -0.9258   61.6984 O   0  0  0  0  0  0  0  0  0  0  0  0
    8.4658    0.2054   64.9699 C   0  0  0  0  0  0  0  0  0  0  0  0
    9.4725   -1.9021   64.3515 C   0  0  0  0  0  0  0  0  0  0  0  0
    8.2896   -0.2610   66.2727 C   0  0  0  0  0  0  0  0  0  0  0  0
    9.2964   -2.3685   65.6543 C   0  0  0  0  0  0  0  0  0  0  0  0
    9.0572   -0.6152   64.0093 C   0  0  0  0  0  0  0  0  0  0  0  0
    8.7049   -1.5479   66.6148 C   0  0  0  0  0  0  0  0  0  0  0  0
    8.5359   -1.9958   67.8658 F   0  0  0  0  0  0  0  0  0  0  0  0
  7  8  2  0
  7  9  1  0
  8 10  1  0
 22 24  2  0
 22 26  1  0
 23 25  1  0
 23 26  2  0
  9 11  2  0
 10 12  2  0
 24 27  1  0
 25 27  2  0
 26 20  1  0
 11 12  1  0
 11 14  1  0
 12 15  1  0
 27 28  1  0
  1  2  2  0
  1  3  1  0
  2  4  1  0
  2 15  1  0
 13 14  1  0
 13 15  1  0
 13 16  2  0
 20 19  1  0
 20 21  2  0
  3  6  1  0
  4  5  1  0
  5  6  1  0
 19 18  1  0
 18 17  1  0
  6 17  1  1
M  CHG  1   6   1
M  END
>  <minimizedAffinity>  (129) 
-8.92808

>  <CNNscore>  (129) 
0.5232275128

>  <CNNaffinity>  (129) 
6.8182282448

>  <CNN_VS>  (129) 
3.5674846172

>  <CNNaffinity_variance>  (129) 
0.1765795350

>  <salt_bridge_distance>  (129) 
(3.4215622279888467, 3.4215622279888467)

$$$$

     RDKit          3D

 28 31  0  0  0  0  0  0  0  0999 V2000
   12.7278   -0.3631   61.9067 C   0  0  0  0  0  0  0  0  0  0  0  0
   11.5832    0.3058   62.1148 C   0  0  0  0  0  0  0  0  0  0  0  0
   13.5774   -0.1331   60.6961 C   0  0  0  0  0  0  0  0  0  0  0  0
   11.0536    1.3138   61.1305 C   0  0  0  0  0  0  0  0  0  0  0  0
   11.6993    1.2118   59.7480 C   0  0  0  0  0  0  0  0  0  0  0  0
   13.1959    1.1058   59.9083 N   0  0  2  0  0  0  0  0  0  0  0  0
    7.6531   -2.3423   64.3008 C   0  0  0  0  0  0  0  0  0  0  0  0
    8.1186   -2.4651   62.9757 C   0  0  0  0  0  0  0  0  0  0  0  0
    8.2467   -1.4432   65.1896 C   0  0  0  0  0  0  0  0  0  0  0  0
    9.1877   -1.6912   62.5107 C   0  0  0  0  0  0  0  0  0  0  0  0
    9.2975   -0.6927   64.7082 C   0  0  0  0  0  0  0  0  0  0  0  0
    9.7650   -0.8065   63.4003 C   0  0  0  0  0  0  0  0  0  0  0  0
   11.0372    0.7818   64.4777 C   0  0  0  0  0  0  0  0  0  0  0  0
   10.0589    0.2657   65.3725 N   0  0  0  0  0  0  0  0  0  0  0  0
   10.8350    0.0921   63.2378 N   0  0  0  0  0  0  0  0  0  0  0  0
   11.8705    1.6397   64.7383 O   0  0  0  0  0  0  0  0  0  0  0  0
   13.9200    1.1862   58.5954 C   0  0  0  0  0  0  0  0  0  0  0  0
   14.5957   -0.1478   58.3164 C   0  0  0  0  0  0  0  0  0  0  0  0
   15.9448    0.0537   57.6245 C   0  0  0  0  0  0  0  0  0  0  0  0
   17.1148   -0.1519   58.5747 C   0  0  0  0  0  0  0  0  0  0  0  0
   17.0105    0.0252   59.7863 O   0  0  0  0  0  0  0  0  0  0  0  0
   19.2552   -1.4345   58.7456 C   0  0  0  0  0  0  0  0  0  0  0  0
   18.8282   -0.1375   56.7524 C   0  0  0  0  0  0  0  0  0  0  0  0
   20.4825   -1.8384   58.2199 C   0  0  0  0  0  0  0  0  0  0  0  0
   20.0555   -0.5414   56.2267 C   0  0  0  0  0  0  0  0  0  0  0  0
   18.4281   -0.5840   58.0118 C   0  0  0  0  0  0  0  0  0  0  0  0
   20.8826   -1.3919   56.9605 C   0  0  0  0  0  0  0  0  0  0  0  0
   22.0611   -1.7796   56.4556 F   0  0  0  0  0  0  0  0  0  0  0  0
  7  8  2  0
  7  9  1  0
  8 10  1  0
 22 24  2  0
 22 26  1  0
 23 25  1  0
 23 26  2  0
  9 11  2  0
 10 12  2  0
 24 27  1  0
 25 27  2  0
 26 20  1  0
 11 12  1  0
 11 14  1  0
 12 15  1  0
 27 28  1  0
  1  2  2  0
  1  3  1  0
  2  4  1  0
  2 15  1  0
 13 14  1  0
 13 15  1  0
 13 16  2  0
 20 19  1  0
 20 21  2  0
  3  6  1  0
  4  5  1  0
  5  6  1  0
 19 18  1  0
 18 17  1  0
  6 17  1  6
M  CHG  1   6   1
M  END
>  <minimizedAffinity>  (130) 
-10.85102

>  <CNNscore>  (130) 
0.4648869336

>  <CNNaffinity>  (130) 
6.6239461899

>  <CNN_VS>  (130) 
3.0793859959

>  <CNNaffinity_variance>  (130) 
0.1183029413

>  <salt_bridge_distance>  (130) 
(2.9324746784925537, 2.9324746784925537)

$$$$

     RDKit          3D

 28 31  0  0  0  0  0  0  0  0999 V2000
   15.5451   -0.9475   58.5806 C   0  0  0  0  0  0  0  0  0  0  0  0
   16.5774   -0.0953   58.6749 C   0  0  0  0  0  0  0  0  0  0  0  0
   14.4820   -1.0322   59.6308 C   0  0  0  0  0  0  0  0  0  0  0  0
   16.7589    0.8158   59.8591 C   0  0  0  0  0  0  0  0  0  0  0  0
   15.9222    0.4100   61.0732 C   0  0  0  0  0  0  0  0  0  0  0  0
   14.5124    0.1133   60.6248 N   0  0  2  0  0  0  0  0  0  0  0  0
   21.3731   -1.4563   57.1307 C   0  0  0  0  0  0  0  0  0  0  0  0
   20.7527   -1.7936   58.3510 C   0  0  0  0  0  0  0  0  0  0  0  0
   20.7087   -0.6808   56.1780 C   0  0  0  0  0  0  0  0  0  0  0  0
   19.4544   -1.3623   58.6450 C   0  0  0  0  0  0  0  0  0  0  0  0
   19.4314   -0.2685   56.4907 C   0  0  0  0  0  0  0  0  0  0  0  0
   18.8094   -0.5962   57.6938 C   0  0  0  0  0  0  0  0  0  0  0  0
   17.3447    0.6792   56.4570 C   0  0  0  0  0  0  0  0  0  0  0  0
   18.5559    0.5039   55.7315 N   0  0  0  0  0  0  0  0  0  0  0  0
   17.5248   -0.0229   57.6933 N   0  0  0  0  0  0  0  0  0  0  0  0
   16.3635    1.3063   56.0799 O   0  0  0  0  0  0  0  0  0  0  0  0
   13.5799   -0.1151   61.7793 C   0  0  0  0  0  0  0  0  0  0  0  0
   12.2826   -0.7166   61.2606 C   0  0  0  0  0  0  0  0  0  0  0  0
   11.1572    0.3193   61.2630 C   0  0  0  0  0  0  0  0  0  0  0  0
   11.1810    1.1973   60.0209 C   0  0  0  0  0  0  0  0  0  0  0  0
   11.1637    2.4241   60.0886 O   0  0  0  0  0  0  0  0  0  0  0  0
   12.2178    0.8997   57.7644 C   0  0  0  0  0  0  0  0  0  0  0  0
   10.2843   -0.4280   58.3442 C   0  0  0  0  0  0  0  0  0  0  0  0
   12.2626    0.2875   56.5118 C   0  0  0  0  0  0  0  0  0  0  0  0
   10.3290   -1.0401   57.0916 C   0  0  0  0  0  0  0  0  0  0  0  0
   11.2287    0.5419   58.6806 C   0  0  0  0  0  0  0  0  0  0  0  0
   11.3183   -0.6824   56.1754 C   0  0  0  0  0  0  0  0  0  0  0  0
   11.3610   -1.2702   54.9726 F   0  0  0  0  0  0  0  0  0  0  0  0
  7  8  2  0
  7  9  1  0
  8 10  1  0
 22 24  2  0
 22 26  1  0
 23 25  1  0
 23 26  2  0
  9 11  2  0
 10 12  2  0
 24 27  1  0
 25 27  2  0
 26 20  1  0
 11 12  1  0
 11 14  1  0
 12 15  1  0
 27 28  1  0
  1  2  2  0
  1  3  1  0
  2  4  1  0
  2 15  1  0
 13 14  1  0
 13 15  1  0
 13 16  2  0
 20 19  1  0
 20 21  2  0
  3  6  1  0
  4  5  1  0
  5  6  1  0
 19 18  1  0
 18 17  1  0
  6 17  1  1
M  CHG  1   6   1
M  END
>  <minimizedAffinity>  (131) 
-8.77366

>  <CNNscore>  (131) 
0.4353068471

>  <CNNaffinity>  (131) 
7.0636148453

>  <CNN_VS>  (131) 
3.0748398304

>  <CNNaffinity_variance>  (131) 
0.0391407907

>  <salt_bridge_distance>  (131) 
(3.315535264478421, 3.315535264478421)

$$$$

     RDKit          3D

 48 52  0  0  0  0  0  0  0  0999 V2000
   11.0507   -0.2528   62.0953 C   0  0  0  0  0  0  0  0  0  0  0  0
   10.6042   -0.2581   63.3662 C   0  0  0  0  0  0  0  0  0  0  0  0
   10.4004   -1.1873   61.1243 C   0  0  0  0  0  0  0  0  0  0  0  0
    9.0183   -1.8665   62.9845 C   0  0  0  0  0  0  0  0  0  0  0  0
    7.4419   -3.5367   61.2146 C   0  0  0  0  0  0  0  0  0  0  0  0
    7.5484   -3.9268   62.6771 C   0  0  0  0  0  0  0  0  0  0  0  0
    8.7595   -2.9488   60.7462 C   0  0  0  0  0  0  0  0  0  0  0  0
    7.8640   -2.7013   63.5119 C   0  0  2  0  0  0  0  0  0  0  0  0
   11.1576    0.6538   64.4295 C   0  0  0  0  0  0  0  0  0  0  0  0
    9.5915   -1.0636   63.8252 N   0  0  0  0  0  0  0  0  0  0  0  0
    9.3603   -1.9605   61.6474 N   0  0  0  0  0  0  0  0  0  0  0  0
   10.7989   -1.2436   59.9612 O   0  0  0  0  0  0  0  0  0  0  0  0
    6.7299   -1.8412   63.5323 O   0  0  0  0  0  0  0  0  0  0  0  0
    6.2341   -1.5463   64.7683 C   0  0  0  0  0  0  0  0  0  0  0  0
    6.8250   -1.6761   65.8326 O   0  0  0  0  0  0  0  0  0  0  0  0
    4.8213   -1.0275   64.6435 C   0  0  0  0  0  0  0  0  0  0  0  0
    3.8131   -2.1442   64.3780 C   0  0  0  0  0  0  0  0  0  0  0  0
    4.1043   -3.4710   65.0899 C   0  0  0  0  0  0  0  0  0  0  0  0
    3.8137   -4.7064   64.2352 C   0  0  0  0  0  0  0  0  0  0  0  0
    3.1530   -5.8088   65.0662 C   0  0  0  0  0  0  0  0  0  0  0  0
    2.5225   -5.3003   66.3667 C   0  0  0  0  0  0  0  0  0  0  0  0
    2.1353   -6.3764   67.3879 C   0  0  0  0  0  0  0  0  0  0  0  0
    2.8577   -7.7092   67.1800 C   0  0  0  0  0  0  0  0  0  0  0  0
    3.2284   -8.3547   68.5169 C   0  0  0  0  0  0  0  0  0  0  0  0
    2.6505   -7.5640   69.6931 C   0  0  0  0  0  0  0  0  0  0  0  0
    3.7486   -7.1466   70.6733 C   0  0  0  0  0  0  0  0  0  0  0  0
    4.2985   -8.3098   71.5055 C   0  0  0  0  0  0  0  0  0  0  0  0
    5.7075   -8.0558   72.0476 C   0  0  0  0  0  0  0  0  0  0  0  0
    8.0476   -7.2327   71.4375 C   0  0  0  0  0  0  0  0  0  0  0  0
    6.7536   -7.8631   70.9462 C   0  0  0  0  0  0  0  0  0  0  0  0
   12.1749    0.5795   61.5508 C   0  0  0  0  0  0  0  0  0  0  0  0
   11.9016    0.9777   60.1147 C   0  0  0  0  0  0  0  0  0  0  0  0
   15.6187    0.5330   59.3288 C   0  0  0  0  0  0  0  0  0  0  0  0
   14.2959    0.4650   57.1764 C   0  0  0  0  0  0  0  0  0  0  0  0
   14.3240    0.3856   60.1178 C   0  0  0  0  0  0  0  0  0  0  0  0
   13.0114    0.3177   57.9820 C   0  0  0  0  0  0  0  0  0  0  0  0
   15.5055   -0.1051   57.9348 C   0  0  0  0  0  0  0  0  0  0  0  0
   13.1667    0.9807   59.3379 N   0  0  0  0  0  0  0  0  0  0  0  0
   18.6414   -1.1998   58.4457 C   0  0  0  0  0  0  0  0  0  0  0  0
   20.0140   -1.4659   58.3400 C   0  0  0  0  0  0  0  0  0  0  0  0
   20.1816   -0.1814   56.2739 C   0  0  0  0  0  0  0  0  0  0  0  0
   18.0405   -0.4148   57.4507 C   0  0  0  0  0  0  0  0  0  0  0  0
   18.8183    0.0630   56.4104 C   0  0  0  0  0  0  0  0  0  0  0  0
   20.7676   -0.9652   57.2733 C   0  0  0  0  0  0  0  0  0  0  0  0
   16.7565    0.0854   57.1601 C   0  0  0  0  0  0  0  0  0  0  0  0
   16.7348    0.8115   56.0384 N   0  0  0  0  0  0  0  0  0  0  0  0
   18.0415    0.7956   55.5663 O   0  0  0  0  0  0  0  0  0  0  0  0
   22.0780   -1.2400   57.2081 F   0  0  0  0  0  0  0  0  0  0  0  0
 39 40  2  0
 39 42  1  0
 40 44  1  0
 41 43  1  0
 41 44  2  0
 42 43  2  0
 42 45  1  0
 43 47  1  0
 44 48  1  0
 45 37  1  0
 45 46  2  0
  1  2  2  0
  1  3  1  0
  1 31  1  0
  2  9  1  0
  2 10  1  0
  3 11  1  0
  3 12  2  0
  4  8  1  0
  4 10  2  0
  4 11  1  0
 14 16  1  0
 14 15  2  0
 14 13  1  0
  5  6  1  0
  5  7  1  0
  6  8  1  0
 33 35  1  0
 33 37  1  0
 34 36  1  0
 34 37  1  0
  7 11  1  0
 35 38  1  0
 36 38  1  0
  8 13  1  6
 29 30  1  0
 31 32  1  0
 16 17  1  0
 30 28  1  0
 17 18  1  0
 28 27  1  0
 18 19  1  0
 27 26  1  0
 19 20  1  0
 26 25  1  0
 20 21  1  0
 25 24  1  0
 21 22  1  0
 24 23  1  0
 22 23  1  0
 32 38  1  0
 46 47  1  0
M  CHG  1  38   1
M  END
>  <minimizedAffinity>  (132) 
-9.20864

>  <CNNscore>  (132) 
0.6169698834

>  <CNNaffinity>  (132) 
7.6112012863

>  <CNN_VS>  (132) 
4.6958818436

>  <CNNaffinity_variance>  (132) 
0.1575477570

>  <salt_bridge_distance>  (132) 
(3.430362107708165, 3.430362107708165)

$$$$

     RDKit          3D

 48 52  0  0  0  0  0  0  0  0999 V2000
   11.2619    0.0012   62.2528 C   0  0  0  0  0  0  0  0  0  0  0  0
   10.7526    0.1669   63.4888 C   0  0  0  0  0  0  0  0  0  0  0  0
   10.7186   -1.1165   61.4194 C   0  0  0  0  0  0  0  0  0  0  0  0
    9.2869   -1.5841   63.3070 C   0  0  0  0  0  0  0  0  0  0  0  0
    7.9046   -3.6148   61.7666 C   0  0  0  0  0  0  0  0  0  0  0  0
    7.9598   -3.7608   63.2760 C   0  0  0  0  0  0  0  0  0  0  0  0
    9.2069   -3.0215   61.2636 C   0  0  0  0  0  0  0  0  0  0  0  0
    8.1591   -2.4003   63.9147 C   0  0  2  0  0  0  0  0  0  0  0  0
   11.1960    1.2705   64.4131 C   0  0  0  0  0  0  0  0  0  0  0  0
    9.7677   -0.6218   64.0301 N   0  0  0  0  0  0  0  0  0  0  0  0
    9.7012   -1.8651   62.0175 N   0  0  0  0  0  0  0  0  0  0  0  0
   11.1782   -1.3291   60.2976 O   0  0  0  0  0  0  0  0  0  0  0  0
    6.9761   -1.6258   63.7503 O   0  0  0  0  0  0  0  0  0  0  0  0
    6.3491   -1.2530   64.9029 C   0  0  0  0  0  0  0  0  0  0  0  0
    6.8849   -0.7715   65.8927 O   0  0  0  0  0  0  0  0  0  0  0  0
    4.8675   -1.5238   64.7910 C   0  0  0  0  0  0  0  0  0  0  0  0
    4.5387   -3.0118   64.8977 C   0  0  0  0  0  0  0  0  0  0  0  0
    4.0921   -3.6782   63.5905 C   0  0  0  0  0  0  0  0  0  0  0  0
    2.6048   -3.4947   63.2814 C   0  0  0  0  0  0  0  0  0  0  0  0
    2.1374   -4.4856   62.2128 C   0  0  0  0  0  0  0  0  0  0  0  0
    2.7731   -5.8733   62.3450 C   0  0  0  0  0  0  0  0  0  0  0  0
    2.6021   -6.8051   61.1395 C   0  0  0  0  0  0  0  0  0  0  0  0
    2.8559   -6.1220   59.7939 C   0  0  0  0  0  0  0  0  0  0  0  0
    4.3415   -6.1494   59.4283 C   0  0  0  0  0  0  0  0  0  0  0  0
    5.0318   -4.8397   59.8164 C   0  0  0  0  0  0  0  0  0  0  0  0
    5.7752   -4.2310   58.6257 C   0  0  0  0  0  0  0  0  0  0  0  0
    6.5110   -2.9304   58.9654 C   0  0  0  0  0  0  0  0  0  0  0  0
    6.8131   -2.0656   57.7388 C   0  0  0  0  0  0  0  0  0  0  0  0
    9.3037   -1.6542   57.3475 C   0  0  0  0  0  0  0  0  0  0  0  0
    8.0059   -1.1268   57.9397 C   0  0  0  0  0  0  0  0  0  0  0  0
   12.3607    0.8104   61.6275 C   0  0  0  0  0  0  0  0  0  0  0  0
   12.0729    1.0647   60.1619 C   0  0  0  0  0  0  0  0  0  0  0  0
   15.7918    0.6171   59.3861 C   0  0  0  0  0  0  0  0  0  0  0  0
   14.4712    0.5134   57.2339 C   0  0  0  0  0  0  0  0  0  0  0  0
   14.4967    0.4785   60.1761 C   0  0  0  0  0  0  0  0  0  0  0  0
   13.1862    0.3752   58.0404 C   0  0  0  0  0  0  0  0  0  0  0  0
   15.6814   -0.0423   58.0018 C   0  0  0  0  0  0  0  0  0  0  0  0
   13.3387    1.0590   59.3862 N   0  0  0  0  0  0  0  0  0  0  0  0
   18.7790   -1.2724   58.4317 C   0  0  0  0  0  0  0  0  0  0  0  0
   20.1401   -1.5825   58.3010 C   0  0  0  0  0  0  0  0  0  0  0  0
   20.3390   -0.2085   56.2962 C   0  0  0  0  0  0  0  0  0  0  0  0
   18.1997   -0.4200   57.4804 C   0  0  0  0  0  0  0  0  0  0  0  0
   18.9866    0.0782   56.4566 C   0  0  0  0  0  0  0  0  0  0  0  0
   20.9035   -1.0594   57.2521 C   0  0  0  0  0  0  0  0  0  0  0  0
   16.9326    0.1395   57.2255 C   0  0  0  0  0  0  0  0  0  0  0  0
   16.9290    0.9181   56.1394 N   0  0  0  0  0  0  0  0  0  0  0  0
   18.2307    0.8775   55.6551 O   0  0  0  0  0  0  0  0  0  0  0  0
   22.2024   -1.3779   57.1620 F   0  0  0  0  0  0  0  0  0  0  0  0
 39 40  2  0
 39 42  1  0
 40 44  1  0
 41 43  1  0
 41 44  2  0
 42 43  2  0
 42 45  1  0
 43 47  1  0
 44 48  1  0
 45 37  1  0
 45 46  2  0
  1  2  2  0
  1  3  1  0
  1 31  1  0
  2  9  1  0
  2 10  1  0
  3 11  1  0
  3 12  2  0
  4  8  1  0
  4 10  2  0
  4 11  1  0
 14 16  1  0
 14 15  2  0
 14 13  1  0
  5  6  1  0
  5  7  1  0
  6  8  1  0
 33 35  1  0
 33 37  1  0
 34 36  1  0
 34 37  1  0
  7 11  1  0
 35 38  1  0
 36 38  1  0
  8 13  1  6
 29 30  1  0
 31 32  1  0
 16 17  1  0
 30 28  1  0
 17 18  1  0
 28 27  1  0
 18 19  1  0
 27 26  1  0
 19 20  1  0
 26 25  1  0
 20 21  1  0
 25 24  1  0
 21 22  1  0
 24 23  1  0
 22 23  1  0
 32 38  1  0
 46 47  1  0
M  CHG  1  38   1
M  END
>  <minimizedAffinity>  (133) 
-8.92566

>  <CNNscore>  (133) 
0.2162173986

>  <CNNaffinity>  (133) 
7.6336607933

>  <CNN_VS>  (133) 
1.6505303383

>  <CNNaffinity_variance>  (133) 
0.2173451930

>  <salt_bridge_distance>  (133) 
(3.3098732800516677, 3.3098732800516677)

$$$$

     RDKit          3D

 48 52  0  0  0  0  0  0  0  0999 V2000
   11.5881   -0.4315   62.4614 C   0  0  0  0  0  0  0  0  0  0  0  0
   11.0474   -0.3190   63.6901 C   0  0  0  0  0  0  0  0  0  0  0  0
   10.9140   -1.3425   61.4842 C   0  0  0  0  0  0  0  0  0  0  0  0
    9.3259   -1.7658   63.2536 C   0  0  0  0  0  0  0  0  0  0  0  0
    7.7134   -3.3512   61.4387 C   0  0  0  0  0  0  0  0  0  0  0  0
    7.6630   -3.6696   62.9214 C   0  0  0  0  0  0  0  0  0  0  0  0
    9.1206   -2.9352   61.0539 C   0  0  0  0  0  0  0  0  0  0  0  0
    8.0485   -2.4413   63.7220 C   0  0  2  0  0  0  0  0  0  0  0  0
   11.6159    0.5850   64.7523 C   0  0  0  0  0  0  0  0  0  0  0  0
    9.9188   -0.9844   64.1008 N   0  0  0  0  0  0  0  0  0  0  0  0
    9.7569   -1.9693   61.9550 N   0  0  0  0  0  0  0  0  0  0  0  0
   11.3918   -1.5050   60.3618 O   0  0  0  0  0  0  0  0  0  0  0  0
    7.0193   -1.4643   63.6092 O   0  0  0  0  0  0  0  0  0  0  0  0
    6.3530   -1.1721   64.7630 C   0  0  0  0  0  0  0  0  0  0  0  0
    5.3181   -1.6980   65.1516 O   0  0  0  0  0  0  0  0  0  0  0  0
    7.0815   -0.0829   65.5138 C   0  0  0  0  0  0  0  0  0  0  0  0
    7.1331    1.2282   64.7314 C   0  0  0  0  0  0  0  0  0  0  0  0
    7.7077    1.1215   63.3135 C   0  0  0  0  0  0  0  0  0  0  0  0
    8.6714    2.2535   62.9517 C   0  0  0  0  0  0  0  0  0  0  0  0
    9.3211    2.0097   61.5876 C   0  0  0  0  0  0  0  0  0  0  0  0
    8.5991    0.9525   60.7459 C   0  0  0  0  0  0  0  0  0  0  0  0
    8.9243    0.9536   59.2477 C   0  0  0  0  0  0  0  0  0  0  0  0
    9.9677    1.9984   58.8460 C   0  0  0  0  0  0  0  0  0  0  0  0
   10.5928    1.6664   57.4894 C   0  0  0  0  0  0  0  0  0  0  0  0
   10.7116    0.1536   57.2894 C   0  0  0  0  0  0  0  0  0  0  0  0
   11.4235   -0.1776   55.9763 C   0  0  0  0  0  0  0  0  0  0  0  0
   12.0377   -1.5813   55.9520 C   0  0  0  0  0  0  0  0  0  0  0  0
   13.0947   -1.7628   54.8595 C   0  0  0  0  0  0  0  0  0  0  0  0
   14.3003    0.2456   53.8404 C   0  0  0  0  0  0  0  0  0  0  0  0
   13.0727   -0.6517   53.8062 C   0  0  0  0  0  0  0  0  0  0  0  0
   12.8367    0.2438   61.9736 C   0  0  0  0  0  0  0  0  0  0  0  0
   12.5805    0.9679   60.6676 C   0  0  0  0  0  0  0  0  0  0  0  0
   16.2333    0.4054   59.6812 C   0  0  0  0  0  0  0  0  0  0  0  0
   14.8154    0.5399   57.5934 C   0  0  0  0  0  0  0  0  0  0  0  0
   14.9688    0.2661   60.5192 C   0  0  0  0  0  0  0  0  0  0  0  0
   13.5619    0.3992   58.4474 C   0  0  0  0  0  0  0  0  0  0  0  0
   16.0278   -0.1339   58.2563 C   0  0  0  0  0  0  0  0  0  0  0  0
   13.8089    0.9638   59.8340 N   0  0  0  0  0  0  0  0  0  0  0  0
   19.1113   -1.4442   58.5177 C   0  0  0  0  0  0  0  0  0  0  0  0
   20.4589   -1.7782   58.3216 C   0  0  0  0  0  0  0  0  0  0  0  0
   20.6099   -0.3366   56.3605 C   0  0  0  0  0  0  0  0  0  0  0  0
   18.5145   -0.5457   57.6212 C   0  0  0  0  0  0  0  0  0  0  0  0
   19.2716   -0.0274   56.5851 C   0  0  0  0  0  0  0  0  0  0  0  0
   21.1921   -1.2335   57.2622 C   0  0  0  0  0  0  0  0  0  0  0  0
   17.2514    0.0494   57.4373 C   0  0  0  0  0  0  0  0  0  0  0  0
   17.2227    0.8670   56.3806 N   0  0  0  0  0  0  0  0  0  0  0  0
   18.5031    0.8164   55.8434 O   0  0  0  0  0  0  0  0  0  0  0  0
   22.4789   -1.5760   57.1088 F   0  0  0  0  0  0  0  0  0  0  0  0
 39 40  2  0
 39 42  1  0
 40 44  1  0
 41 43  1  0
 41 44  2  0
 42 43  2  0
 42 45  1  0
 43 47  1  0
 44 48  1  0
 45 37  1  0
 45 46  2  0
  1  2  2  0
  1  3  1  0
  1 31  1  0
  2  9  1  0
  2 10  1  0
  3 11  1  0
  3 12  2  0
  4  8  1  0
  4 10  2  0
  4 11  1  0
 14 16  1  0
 14 15  2  0
 14 13  1  0
  5  6  1  0
  5  7  1  0
  6  8  1  0
 33 35  1  0
 33 37  1  0
 34 36  1  0
 34 37  1  0
  7 11  1  0
 35 38  1  0
 36 38  1  0
  8 13  1  6
 29 30  1  0
 31 32  1  0
 16 17  1  0
 30 28  1  0
 17 18  1  0
 28 27  1  0
 18 19  1  0
 27 26  1  0
 19 20  1  0
 26 25  1  0
 20 21  1  0
 25 24  1  0
 21 22  1  0
 24 23  1  0
 22 23  1  0
 32 38  1  0
 46 47  1  0
M  CHG  1  38   1
M  END
>  <minimizedAffinity>  (134) 
-7.04594

>  <CNNscore>  (134) 
0.2052712590

>  <CNNaffinity>  (134) 
7.9586591721

>  <CNN_VS>  (134) 
1.6336840391

>  <CNNaffinity_variance>  (134) 
0.5249581933

>  <salt_bridge_distance>  (134) 
(2.9919915858838877, 2.9919915858838877)

$$$$

     RDKit          3D

 30 33  0  0  0  0  0  0  0  0999 V2000
   11.2766    0.5029   63.3703 C   0  0  0  0  0  0  0  0  0  0  0  0
   10.3356    0.6384   64.5650 C   0  0  0  0  0  0  0  0  0  0  0  0
    8.8779    0.6879   64.1299 C   0  0  0  0  0  0  0  0  0  0  0  0
    8.0533    0.4127   65.2538 O   0  0  0  0  0  0  0  0  0  0  0  0
    4.4627   -0.0467   64.6576 C   0  0  0  0  0  0  0  0  0  0  0  0
    5.6908    0.5698   64.9010 C   0  0  0  0  0  0  0  0  0  0  0  0
    6.7892   -1.5830   64.8600 C   0  0  0  0  0  0  0  0  0  0  0  0
    4.3924   -1.4347   64.4972 C   0  0  0  0  0  0  0  0  0  0  0  0
    5.5627   -2.1976   64.5969 C   0  0  0  0  0  0  0  0  0  0  0  0
    6.8513   -0.1972   65.0045 C   0  0  0  0  0  0  0  0  0  0  0  0
    4.3780   -4.2829   64.0533 C   0  0  0  0  0  0  0  0  0  0  0  0
    3.0726   -2.1308   64.3298 C   0  0  0  0  0  0  0  0  0  0  0  0
    3.2371   -3.4235   63.5448 C   0  0  0  0  0  0  0  0  0  0  0  0
    5.5056   -3.5962   64.4610 N   0  0  0  0  0  0  0  0  0  0  0  0
    4.3214   -5.5118   64.0084 O   0  0  0  0  0  0  0  0  0  0  0  0
   10.7060    1.1992   62.1438 C   0  0  0  0  0  0  0  0  0  0  0  0
   12.4235    2.1323   58.8477 C   0  0  0  0  0  0  0  0  0  0  0  0
   13.4694    0.0940   59.7429 C   0  0  0  0  0  0  0  0  0  0  0  0
   11.2766    2.0061   59.8486 C   0  0  0  0  0  0  0  0  0  0  0  0
   12.3467   -0.0797   60.7586 C   0  0  0  0  0  0  0  0  0  0  0  0
   12.9598    0.7972   58.5636 N   0  0  0  0  0  0  0  0  0  0  0  0
   11.7704    1.2842   61.0862 N   0  0  0  0  0  0  0  0  0  0  0  0
   10.9049   -0.8959   56.0324 C   0  0  0  0  0  0  0  0  0  0  0  0
   11.2841   -0.2260   57.1956 C   0  0  0  0  0  0  0  0  0  0  0  0
   11.8598   -1.2091   55.0651 C   0  0  0  0  0  0  0  0  0  0  0  0
   12.6184    0.1306   57.3916 C   0  0  0  0  0  0  0  0  0  0  0  0
   13.1940   -0.8524   55.2610 C   0  0  0  0  0  0  0  0  0  0  0  0
   13.5733   -0.1825   56.4243 C   0  0  0  0  0  0  0  0  0  0  0  0
   14.3234   -1.2707   54.0197 Cl  0  0  0  0  0  0  0  0  0  0  0  0
   15.2297    0.2699   56.6865 Cl  0  0  0  0  0  0  0  0  0  0  0  0
 23 24  2  0
 23 25  1  0
  5  6  2  0
  5  8  1  0
 24 26  1  0
  6 10  1  0
 25 27  2  0
  7  9  1  0
  7 10  2  0
  8  9  2  0
  8 12  1  0
 26 28  2  0
 26 21  1  0
  9 14  1  0
 10  4  1  0
 27 28  1  0
 27 29  1  0
 28 30  1  0
 11 13  1  0
 11 14  1  0
 11 15  2  0
 12 13  1  0
 17 19  1  0
 17 21  1  0
 18 20  1  0
 18 21  1  0
 19 22  1  0
 20 22  1  0
  1  2  1  0
  1 16  1  0
  2  3  1  0
 16 22  1  0
  3  4  1  0
M  CHG  1  22   1
M  END
>  <minimizedAffinity>  (135) 
-9.51972

>  <CNNscore>  (135) 
0.3862151802

>  <CNNaffinity>  (135) 
6.5739350319

>  <CNN_VS>  (135) 
2.5389535427

>  <CNNaffinity_variance>  (135) 
0.0761713311

>  <salt_bridge_distance>  (135) 
(2.959633666520234, 2.959633666520234)

$$$$

     RDKit          3D

 30 33  0  0  0  0  0  0  0  0999 V2000
   15.1804   -0.3113   60.5530 C   0  0  0  0  0  0  0  0  0  0  0  0
   16.4861    0.1497   59.9097 C   0  0  0  0  0  0  0  0  0  0  0  0
   17.1467   -0.9678   59.1150 C   0  0  0  0  0  0  0  0  0  0  0  0
   17.7403   -0.4136   57.9491 O   0  0  0  0  0  0  0  0  0  0  0  0
   16.4722    0.9227   54.7766 C   0  0  0  0  0  0  0  0  0  0  0  0
   17.3171    0.6741   55.8591 C   0  0  0  0  0  0  0  0  0  0  0  0
   15.6594   -0.7950   56.8266 C   0  0  0  0  0  0  0  0  0  0  0  0
   15.2212    0.3006   54.7039 C   0  0  0  0  0  0  0  0  0  0  0  0
   14.8220   -0.5612   55.7332 C   0  0  0  0  0  0  0  0  0  0  0  0
   16.9104   -0.1811   56.8832 C   0  0  0  0  0  0  0  0  0  0  0  0
   12.7225   -1.1319   54.5871 C   0  0  0  0  0  0  0  0  0  0  0  0
   14.2563    0.6246   53.6001 C   0  0  0  0  0  0  0  0  0  0  0  0
   13.3315   -0.5519   53.3256 C   0  0  0  0  0  0  0  0  0  0  0  0
   13.5583   -1.1764   55.6866 N   0  0  0  0  0  0  0  0  0  0  0  0
   11.5896   -1.6138   54.5865 O   0  0  0  0  0  0  0  0  0  0  0  0
   13.9776    0.1946   59.7706 C   0  0  0  0  0  0  0  0  0  0  0  0
   11.8895    0.3235   62.9812 C   0  0  0  0  0  0  0  0  0  0  0  0
   10.5082    1.0992   61.0998 C   0  0  0  0  0  0  0  0  0  0  0  0
   12.9475   -0.2014   62.0126 C   0  0  0  0  0  0  0  0  0  0  0  0
   11.5307    0.5893   60.0914 C   0  0  0  0  0  0  0  0  0  0  0  0
   10.5801    0.2946   62.3214 N   0  0  0  0  0  0  0  0  0  0  0  0
   12.9035    0.6127   60.7351 N   0  0  0  0  0  0  0  0  0  0  0  0
    8.7253   -2.8589   61.9875 C   0  0  0  0  0  0  0  0  0  0  0  0
    9.6260   -1.8223   61.7428 C   0  0  0  0  0  0  0  0  0  0  0  0
    7.8683   -2.7934   63.0861 C   0  0  0  0  0  0  0  0  0  0  0  0
    9.6696   -0.7201   62.5968 C   0  0  0  0  0  0  0  0  0  0  0  0
    7.9120   -1.6913   63.9401 C   0  0  0  0  0  0  0  0  0  0  0  0
    8.8127   -0.6547   63.6954 C   0  0  0  0  0  0  0  0  0  0  0  0
    6.8222   -1.6774   65.2831 Cl  0  0  0  0  0  0  0  0  0  0  0  0
    8.8821    0.7260   64.7471 Cl  0  0  0  0  0  0  0  0  0  0  0  0
 23 24  2  0
 23 25  1  0
  5  6  2  0
  5  8  1  0
 24 26  1  0
  6 10  1  0
 25 27  2  0
  7  9  1  0
  7 10  2  0
  8  9  2  0
  8 12  1  0
 26 28  2  0
 26 21  1  0
  9 14  1  0
 10  4  1  0
 27 28  1  0
 27 29  1  0
 28 30  1  0
 11 13  1  0
 11 14  1  0
 11 15  2  0
 12 13  1  0
 17 19  1  0
 17 21  1  0
 18 20  1  0
 18 21  1  0
 19 22  1  0
 20 22  1  0
  1  2  1  0
  1 16  1  0
  2  3  1  0
 16 22  1  0
  3  4  1  0
M  CHG  1  22   1
M  END
>  <minimizedAffinity>  (136) 
-9.82677

>  <CNNscore>  (136) 
0.3742798865

>  <CNNaffinity>  (136) 
7.0844550133

>  <CNN_VS>  (136) 
2.6515691280

>  <CNNaffinity_variance>  (136) 
0.0195717625

>  <salt_bridge_distance>  (136) 
(2.954686980036971, 2.954686980036971)

$$$$

     RDKit          3D

 30 33  0  0  0  0  0  0  0  0999 V2000
   11.1186    0.7904   63.3076 C   0  0  0  0  0  0  0  0  0  0  0  0
   10.0431    0.9026   64.3855 C   0  0  0  0  0  0  0  0  0  0  0  0
    9.3975   -0.4444   64.6781 C   0  0  0  0  0  0  0  0  0  0  0  0
    9.7925   -1.3706   63.6756 O   0  0  0  0  0  0  0  0  0  0  0  0
    7.7651   -3.1070   61.1590 C   0  0  0  0  0  0  0  0  0  0  0  0
    8.7765   -2.3377   61.7358 C   0  0  0  0  0  0  0  0  0  0  0  0
    7.8201   -2.7060   63.9249 C   0  0  0  0  0  0  0  0  0  0  0  0
    6.7834   -3.6949   61.9639 C   0  0  0  0  0  0  0  0  0  0  0  0
    6.8192   -3.4922   63.3492 C   0  0  0  0  0  0  0  0  0  0  0  0
    8.8024   -2.1356   63.1157 C   0  0  0  0  0  0  0  0  0  0  0  0
    4.8874   -4.9672   63.7234 C   0  0  0  0  0  0  0  0  0  0  0  0
    5.6324   -4.4465   61.3600 C   0  0  0  0  0  0  0  0  0  0  0  0
    5.1095   -5.5025   62.3224 C   0  0  0  0  0  0  0  0  0  0  0  0
    5.8266   -4.0572   64.1697 N   0  0  0  0  0  0  0  0  0  0  0  0
    3.9805   -5.3981   64.4357 O   0  0  0  0  0  0  0  0  0  0  0  0
   10.6330    1.3731   61.9887 C   0  0  0  0  0  0  0  0  0  0  0  0
   12.6094    2.0960   58.7862 C   0  0  0  0  0  0  0  0  0  0  0  0
   13.4371    0.0033   59.7790 C   0  0  0  0  0  0  0  0  0  0  0  0
   11.3993    2.0817   59.7182 C   0  0  0  0  0  0  0  0  0  0  0  0
   12.2464   -0.0600   60.7280 C   0  0  0  0  0  0  0  0  0  0  0  0
   13.0546    0.7173   58.5587 N   0  0  0  0  0  0  0  0  0  0  0  0
   11.7611    1.3516   60.9960 N   0  0  0  0  0  0  0  0  0  0  0  0
   11.0260   -0.8794   55.9450 C   0  0  0  0  0  0  0  0  0  0  0  0
   11.3878   -0.2147   57.1168 C   0  0  0  0  0  0  0  0  0  0  0  0
   12.0075   -1.2762   55.0369 C   0  0  0  0  0  0  0  0  0  0  0  0
   12.7312    0.0531   57.3803 C   0  0  0  0  0  0  0  0  0  0  0  0
   13.3509   -1.0084   55.3004 C   0  0  0  0  0  0  0  0  0  0  0  0
   13.7127   -0.3437   56.4721 C   0  0  0  0  0  0  0  0  0  0  0  0
   14.5136   -1.5274   54.1299 Cl  0  0  0  0  0  0  0  0  0  0  0  0
   15.3800   -0.0011   56.8181 Cl  0  0  0  0  0  0  0  0  0  0  0  0
 23 24  2  0
 23 25  1  0
  5  6  2  0
  5  8  1  0
 24 26  1  0
  6 10  1  0
 25 27  2  0
  7  9  1  0
  7 10  2  0
  8  9  2  0
  8 12  1  0
 26 28  2  0
 26 21  1  0
  9 14  1  0
 10  4  1  0
 27 28  1  0
 27 29  1  0
 28 30  1  0
 11 13  1  0
 11 14  1  0
 11 15  2  0
 12 13  1  0
 17 19  1  0
 17 21  1  0
 18 20  1  0
 18 21  1  0
 19 22  1  0
 20 22  1  0
  1  2  1  0
  1 16  1  0
  2  3  1  0
 16 22  1  0
  3  4  1  0
M  CHG  1  22   1
M  END
>  <minimizedAffinity>  (137) 
-9.14806

>  <CNNscore>  (137) 
0.3046160042

>  <CNNaffinity>  (137) 
6.5246992111

>  <CNN_VS>  (137) 
1.9875278473

>  <CNNaffinity_variance>  (137) 
0.1866041720

>  <salt_bridge_distance>  (137) 
(2.951833560687322, 2.951833560687322)

$$$$

     RDKit          3D

 20 22  0  0  0  0  0  0  0  0999 V2000
    9.9310   -0.8475   63.6445 C   0  0  0  0  0  0  0  0  0  0  0  0
    9.2445   -1.7660   64.4741 C   0  0  0  0  0  0  0  0  0  0  0  0
   10.3921    0.1692   64.4539 C   0  0  0  0  0  0  0  0  0  0  0  0
    9.3150   -1.2811   65.7640 C   0  0  0  0  0  0  0  0  0  0  0  0
   10.1778   -0.8412   62.2144 C   0  0  0  0  0  0  0  0  0  0  0  0
   11.1645    1.3606   64.0215 C   0  0  0  0  0  0  0  0  0  0  0  0
   10.9178    1.5880   62.5205 C   0  0  0  0  0  0  0  0  0  0  0  0
   11.0457    0.3036   61.6685 C   0  0  1  0  0  0  0  0  0  0  0  0
    8.7823   -1.8208   67.0304 C   0  0  0  0  0  0  0  0  0  0  0  0
   10.0185   -0.1023   65.7406 N   0  0  0  0  0  0  0  0  0  0  0  0
    9.7605   -1.7336   61.4807 O   0  0  0  0  0  0  0  0  0  0  0  0
    7.1245   -2.7835   63.6040 C   0  0  0  0  0  0  0  0  0  0  0  0
    8.5718   -3.0117   64.0516 C   0  0  0  0  0  0  0  0  0  0  0  0
   12.4916   -0.1718   61.5534 C   0  0  0  0  0  0  0  0  0  0  0  0
   12.3773    0.1775   59.0817 C   0  0  0  0  0  0  0  0  0  0  0  0
   14.5852    0.1350   60.2241 C   0  0  0  0  0  0  0  0  0  0  0  0
   13.0527    0.9238   57.9438 C   0  0  0  0  0  0  0  0  0  0  0  0
   15.1467    0.8831   59.0268 C   0  0  0  0  0  0  0  0  0  0  0  0
   13.1219    0.4855   60.3595 N   0  0  0  0  0  0  0  0  0  0  0  0
   14.4258    0.5444   57.8411 O   0  0  0  0  0  0  0  0  0  0  0  0
  1  2  1  0
  1  3  2  0
  1  5  1  0
  2  4  2  0
  2 13  1  0
  3  6  1  0
  3 10  1  0
  4  9  1  0
  4 10  1  0
  5  8  1  0
  5 11  2  0
  6  7  1  0
  7  8  1  0
 15 17  1  0
 15 19  1  0
 16 18  1  0
 16 19  1  0
 17 20  1  0
 18 20  1  0
  8 14  1  1
 12 13  1  0
 14 19  1  0
M  CHG  1  19   1
M  END
>  <minimizedAffinity>  (138) 
-7.58537

>  <CNNscore>  (138) 
0.7439097166

>  <CNNaffinity>  (138) 
6.1280908585

>  <CNN_VS>  (138) 
4.5587463379

>  <CNNaffinity_variance>  (138) 
0.0732675344

>  <salt_bridge_distance>  (138) 
(3.161892931457358, 3.161892931457358)

$$$$

     RDKit          3D

 20 22  0  0  0  0  0  0  0  0999 V2000
   14.0850   -0.0160   56.9717 C   0  0  0  0  0  0  0  0  0  0  0  0
   14.3867   -0.2753   55.6134 C   0  0  0  0  0  0  0  0  0  0  0  0
   15.2832    0.1699   57.6284 C   0  0  0  0  0  0  0  0  0  0  0  0
   15.7600   -0.2331   55.4859 C   0  0  0  0  0  0  0  0  0  0  0  0
   12.8197    0.0652   57.6777 C   0  0  0  0  0  0  0  0  0  0  0  0
   15.4625    0.4622   59.0725 C   0  0  0  0  0  0  0  0  0  0  0  0
   14.2044    0.0002   59.8272 C   0  0  0  0  0  0  0  0  0  0  0  0
   12.8818    0.4506   59.1641 C   0  0  1  0  0  0  0  0  0  0  0  0
   16.6281   -0.4260   54.3078 C   0  0  0  0  0  0  0  0  0  0  0  0
   16.2964    0.0411   56.7197 N   0  0  0  0  0  0  0  0  0  0  0  0
   11.7465   -0.1121   57.1070 O   0  0  0  0  0  0  0  0  0  0  0  0
   13.1590   -2.0404   54.3234 C   0  0  0  0  0  0  0  0  0  0  0  0
   13.4228   -0.5451   54.5266 C   0  0  0  0  0  0  0  0  0  0  0  0
   12.6471    1.9523   59.3049 C   0  0  0  0  0  0  0  0  0  0  0  0
   11.3084    1.0378   61.2064 C   0  0  0  0  0  0  0  0  0  0  0  0
   10.1998    2.4299   59.4701 C   0  0  0  0  0  0  0  0  0  0  0  0
   10.1466    1.3739   62.1258 C   0  0  0  0  0  0  0  0  0  0  0  0
    9.0949    2.6937   60.4791 C   0  0  0  0  0  0  0  0  0  0  0  0
   11.4824    2.1741   60.2264 N   0  0  0  0  0  0  0  0  0  0  0  0
    8.9539    1.5854   61.3690 O   0  0  0  0  0  0  0  0  0  0  0  0
  1  2  1  0
  1  3  2  0
  1  5  1  0
  2  4  2  0
  2 13  1  0
  3  6  1  0
  3 10  1  0
  4  9  1  0
  4 10  1  0
  5  8  1  0
  5 11  2  0
  6  7  1  0
  7  8  1  0
 15 17  1  0
 15 19  1  0
 16 18  1  0
 16 19  1  0
 17 20  1  0
 18 20  1  0
  8 14  1  6
 12 13  1  0
 14 19  1  0
M  CHG  1  19   1
M  END
>  <minimizedAffinity>  (139) 
-7.11778

>  <CNNscore>  (139) 
0.7107606530

>  <CNNaffinity>  (139) 
6.0122594833

>  <CNN_VS>  (139) 
4.2732772827

>  <CNNaffinity_variance>  (139) 
0.0303821266

>  <salt_bridge_distance>  (139) 
(3.1259363285262234, 3.1259363285262234)

$$$$

     RDKit          3D

 20 22  0  0  0  0  0  0  0  0999 V2000
   14.1617    0.5171   57.3661 C   0  0  0  0  0  0  0  0  0  0  0  0
   15.2108    0.0180   56.5578 C   0  0  0  0  0  0  0  0  0  0  0  0
   12.9982    0.4194   56.6325 C   0  0  0  0  0  0  0  0  0  0  0  0
   14.6505   -0.3731   55.3590 C   0  0  0  0  0  0  0  0  0  0  0  0
   14.1588    1.0592   58.7123 C   0  0  0  0  0  0  0  0  0  0  0  0
   11.6407    0.8290   57.0712 C   0  0  0  0  0  0  0  0  0  0  0  0
   11.7806    1.8545   58.2090 C   0  0  0  0  0  0  0  0  0  0  0  0
   12.7906    1.4351   59.3025 C   0  0  1  0  0  0  0  0  0  0  0  0
   15.2626   -0.9630   54.1523 C   0  0  0  0  0  0  0  0  0  0  0  0
   13.3011   -0.1260   55.4161 N   0  0  0  0  0  0  0  0  0  0  0  0
   15.1904    1.1643   59.3709 O   0  0  0  0  0  0  0  0  0  0  0  0
   17.4495    1.1410   56.4409 C   0  0  0  0  0  0  0  0  0  0  0  0
   16.6414   -0.0707   56.9161 C   0  0  0  0  0  0  0  0  0  0  0  0
   12.2740    0.2774   60.1527 C   0  0  0  0  0  0  0  0  0  0  0  0
   12.0612    0.2500   62.6423 C   0  0  0  0  0  0  0  0  0  0  0  0
   10.0575    0.6795   61.2343 C   0  0  0  0  0  0  0  0  0  0  0  0
   11.3174    0.9125   63.7894 C   0  0  0  0  0  0  0  0  0  0  0  0
    9.4169    1.3193   62.4545 C   0  0  0  0  0  0  0  0  0  0  0  0
   11.5557    0.8385   61.3461 N   0  0  0  0  0  0  0  0  0  0  0  0
    9.9091    0.7173   63.6526 O   0  0  0  0  0  0  0  0  0  0  0  0
  1  2  1  0
  1  3  2  0
  1  5  1  0
  2  4  2  0
  2 13  1  0
  3  6  1  0
  3 10  1  0
  4  9  1  0
  4 10  1  0
  5  8  1  0
  5 11  2  0
  6  7  1  0
  7  8  1  0
 15 17  1  0
 15 19  1  0
 16 18  1  0
 16 19  1  0
 17 20  1  0
 18 20  1  0
  8 14  1  6
 12 13  1  0
 14 19  1  0
M  CHG  1  19   1
M  END
>  <minimizedAffinity>  (140) 
-7.39550

>  <CNNscore>  (140) 
0.4757812321

>  <CNNaffinity>  (140) 
5.9348335266

>  <CNN_VS>  (140) 
2.8236823082

>  <CNNaffinity_variance>  (140) 
0.1366735548

>  <salt_bridge_distance>  (140) 
(3.3486691610250188, 3.3486691610250188)

$$$$

     RDKit          3D

 20 23  0  0  0  0  0  0  0  0999 V2000
   20.3323   -1.5509   58.2775 C   0  0  0  0  0  0  0  0  0  0  0  0
   20.6736   -0.9928   57.0525 C   0  0  0  0  0  0  0  0  0  0  0  0
   19.0381   -1.3943   58.7781 C   0  0  0  0  0  0  0  0  0  0  0  0
   19.7164   -0.2918   56.3255 C   0  0  0  0  0  0  0  0  0  0  0  0
   16.1463   -0.3690   54.3617 C   0  0  0  0  0  0  0  0  0  0  0  0
   14.8988   -0.8596   53.9879 C   0  0  0  0  0  0  0  0  0  0  0  0
   14.0908   -0.5313   56.2482 C   0  0  0  0  0  0  0  0  0  0  0  0
   18.0540   -0.6721   58.0727 C   0  0  0  0  0  0  0  0  0  0  0  0
   15.3415   -0.0459   56.6442 C   0  0  0  0  0  0  0  0  0  0  0  0
   18.4088   -0.1503   56.8158 C   0  0  0  0  0  0  0  0  0  0  0  0
   16.3629    0.0196   55.6846 C   0  0  0  0  0  0  0  0  0  0  0  0
   13.8733   -0.9395   54.9288 C   0  0  0  0  0  0  0  0  0  0  0  0
   16.6872   -0.0803   60.1524 C   0  0  0  0  0  0  0  0  0  0  0  0
   14.5541    0.4223   59.0744 C   0  0  0  0  0  0  0  0  0  0  0  0
   16.6768   -0.5631   58.6951 C   0  0  1  0  0  0  0  0  0  0  0  0
   15.6739    0.3992   58.0413 C   0  0  1  0  0  0  0  0  0  0  0  0
   14.5723   -0.0614   61.5479 C   0  0  0  0  0  0  0  0  0  0  0  0
   15.3090    0.5164   60.3826 N   0  0  1  0  0  0  0  0  0  0  0  0
   17.5782    0.5850   55.9974 O   0  0  0  0  0  0  0  0  0  0  0  0
   12.3278   -1.5389   54.4611 Cl  0  0  0  0  0  0  0  0  0  0  0  0
  1  2  2  0
  1  3  1  0
  2  4  1  0
  3  8  2  0
  4 10  2  0
  5  6  1  0
  5 11  2  0
  6 12  2  0
  7  9  2  0
  7 12  1  0
  8 10  1  0
  8 15  1  0
  9 11  1  0
  9 16  1  0
 10 19  1  0
 11 19  1  0
 12 20  1  0
 15 13  1  1
 13 18  1  0
 16 14  1  1
 14 18  1  0
 15 16  1  0
 18 17  1  1
M  CHG  1  18   1
M  END
>  <minimizedAffinity>  (141) 
-11.03569

>  <CNNscore>  (141) 
0.8944883943

>  <CNNaffinity>  (141) 
6.9415616989

>  <CNN_VS>  (141) 
6.2091464996

>  <CNNaffinity_variance>  (141) 
0.0579840429

>  <salt_bridge_distance>  (141) 
(3.4536220291166804, 3.3094251948034725)

$$$$

     RDKit          3D

 23 26  0  0  0  0  0  0  0  0999 V2000
   11.3740    1.5806   64.0149 C   0  0  0  0  0  0  0  0  0  0  0  0
   10.5896    0.9804   64.9806 C   0  0  0  0  0  0  0  0  0  0  0  0
   11.4863    0.9887   62.7562 C   0  0  0  0  0  0  0  0  0  0  0  0
    9.9013   -0.1855   64.6627 C   0  0  0  0  0  0  0  0  0  0  0  0
    7.3739   -3.0967   62.1001 C   0  0  0  0  0  0  0  0  0  0  0  0
    6.6936   -3.6142   61.0007 C   0  0  0  0  0  0  0  0  0  0  0  0
    8.4056   -2.7162   59.5860 C   0  0  0  0  0  0  0  0  0  0  0  0
   10.8292   -0.2211   62.4186 C   0  0  0  0  0  0  0  0  0  0  0  0
    9.9919   -0.7889   63.3835 C   0  0  0  0  0  0  0  0  0  0  0  0
    8.5840   -2.3713   61.9679 C   0  0  0  0  0  0  0  0  0  0  0  0
    9.1062   -2.1713   60.6878 C   0  0  0  0  0  0  0  0  0  0  0  0
    7.2125   -3.4208   59.7340 C   0  0  0  0  0  0  0  0  0  0  0  0
   11.1116   -0.8249   61.0953 C   0  0  0  0  0  0  0  0  0  0  0  0
    9.1384   -1.8737   63.1522 N   0  0  0  0  0  0  0  0  0  0  0  0
   10.3039   -1.5961   60.3761 N   0  0  0  0  0  0  0  0  0  0  0  0
    6.4000   -4.0525   58.3567 Cl  0  0  0  0  0  0  0  0  0  0  0  0
   12.4382    0.1304   59.2627 C   0  0  0  0  0  0  0  0  0  0  0  0
   13.5584   -1.0259   61.1500 C   0  0  0  0  0  0  0  0  0  0  0  0
   13.4497    1.2643   59.3399 C   0  0  0  0  0  0  0  0  0  0  0  0
   14.5822    0.0959   61.2466 C   0  0  0  0  0  0  0  0  0  0  0  0
   15.5799   -0.0328   58.9272 C   0  0  0  0  0  0  0  0  0  0  0  0
   12.3204   -0.5569   60.5418 N   0  0  0  0  0  0  0  0  0  0  0  0
   14.7633    0.7685   59.9035 N   0  0  0  0  0  0  0  0  0  0  0  0
  1  2  2  0
  1  3  1  0
  2  4  1  0
  3  8  2  0
  4  9  2  0
  5  6  1  0
  5 10  2  0
  6 12  2  0
  7 11  2  0
  7 12  1  0
  8  9  1  0
  8 13  1  0
  9 14  1  0
 10 11  1  0
 10 14  1  0
 11 15  1  0
 12 16  1  0
 13 22  1  0
 13 15  2  0
 17 19  1  0
 17 22  1  0
 18 20  1  0
 18 22  1  0
 19 23  1  0
 20 23  1  0
 21 23  1  0
M  CHG  2  15   1  23   1
M  END
>  <minimizedAffinity>  (142) 
-8.14452

>  <CNNscore>  (142) 
0.4436393976

>  <CNNaffinity>  (142) 
6.2430367470

>  <CNN_VS>  (142) 
2.7696571350

>  <CNNaffinity_variance>  (142) 
0.0787548721

>  <salt_bridge_distance>  (142) 
(3.1939644628580304, 3.1939644628580304)

$$$$

     RDKit          3D

 23 26  0  0  0  0  0  0  0  0999 V2000
   10.0579    0.0159   65.3605 C   0  0  0  0  0  0  0  0  0  0  0  0
    9.7932   -0.9907   66.2687 C   0  0  0  0  0  0  0  0  0  0  0  0
    9.7795   -0.1885   64.0086 C   0  0  0  0  0  0  0  0  0  0  0  0
    9.2219   -2.1752   65.8162 C   0  0  0  0  0  0  0  0  0  0  0  0
    6.3936   -4.8945   63.3593 C   0  0  0  0  0  0  0  0  0  0  0  0
    5.4385   -5.2747   62.4198 C   0  0  0  0  0  0  0  0  0  0  0  0
    6.3384   -3.6370   60.9210 C   0  0  0  0  0  0  0  0  0  0  0  0
    9.2361   -1.4008   63.5143 C   0  0  0  0  0  0  0  0  0  0  0  0
    8.9178   -2.3907   64.4488 C   0  0  0  0  0  0  0  0  0  0  0  0
    7.3407   -3.8719   63.1037 C   0  0  0  0  0  0  0  0  0  0  0  0
    7.3089   -3.2266   61.8652 C   0  0  0  0  0  0  0  0  0  0  0  0
    5.4096   -4.6398   61.1922 C   0  0  0  0  0  0  0  0  0  0  0  0
    9.0910   -1.5560   62.0480 C   0  0  0  0  0  0  0  0  0  0  0  0
    8.2154   -3.5643   64.1514 N   0  0  0  0  0  0  0  0  0  0  0  0
    8.2003   -2.3019   61.4040 N   0  0  0  0  0  0  0  0  0  0  0  0
    4.2470   -5.0904   60.0084 Cl  0  0  0  0  0  0  0  0  0  0  0  0
    9.4879    0.2344   60.4147 C   0  0  0  0  0  0  0  0  0  0  0  0
   11.3574   -1.2120   61.1674 C   0  0  0  0  0  0  0  0  0  0  0  0
   10.3592    1.4704   60.5831 C   0  0  0  0  0  0  0  0  0  0  0  0
   12.2485    0.0090   61.3432 C   0  0  0  0  0  0  0  0  0  0  0  0
   12.2267    0.9003   58.9775 C   0  0  0  0  0  0  0  0  0  0  0  0
    9.9488   -0.8536   61.2668 N   0  0  0  0  0  0  0  0  0  0  0  0
   11.8205    1.1194   60.4090 N   0  0  0  0  0  0  0  0  0  0  0  0
  1  2  2  0
  1  3  1  0
  2  4  1  0
  3  8  2  0
  4  9  2  0
  5  6  1  0
  5 10  2  0
  6 12  2  0
  7 11  2  0
  7 12  1  0
  8  9  1  0
  8 13  1  0
  9 14  1  0
 10 11  1  0
 10 14  1  0
 11 15  1  0
 12 16  1  0
 13 22  1  0
 13 15  2  0
 17 19  1  0
 17 22  1  0
 18 20  1  0
 18 22  1  0
 19 23  1  0
 20 23  1  0
 21 23  1  0
M  CHG  2  15   1  23   1
M  END
>  <minimizedAffinity>  (143) 
-7.82882

>  <CNNscore>  (143) 
0.4347406626

>  <CNNaffinity>  (143) 
6.1133146286

>  <CNN_VS>  (143) 
2.6577064991

>  <CNNaffinity_variance>  (143) 
0.0967619419

>  <salt_bridge_distance>  (143) 
(3.2779053082723437, 3.2779053082723437)

$$$$

     RDKit          3D

 26 29  0  0  0  0  0  0  0  0999 V2000
   11.8485    0.0372   62.0813 C   0  0  0  0  0  0  0  0  0  0  0  0
   11.2043    0.6311   59.7833 C   0  0  0  0  0  0  0  0  0  0  0  0
   13.2436   -0.3714   61.6237 C   0  0  0  0  0  0  0  0  0  0  0  0
   12.5892    0.2382   59.2731 C   0  0  0  0  0  0  0  0  0  0  0  0
   10.8969   -0.1522   60.9843 N   0  0  0  0  0  0  0  0  0  0  0  0
   13.6028    0.4250   60.3843 N   0  0  0  0  0  0  0  0  0  0  0  0
    8.7777   -2.8338   59.6027 C   0  0  0  0  0  0  0  0  0  0  0  0
    9.6215   -1.7253   59.6737 C   0  0  0  0  0  0  0  0  0  0  0  0
    8.3676   -3.4741   60.7722 C   0  0  0  0  0  0  0  0  0  0  0  0
    9.6451   -1.8976   62.0835 C   0  0  0  0  0  0  0  0  0  0  0  0
   10.0552   -1.2572   60.9140 C   0  0  0  0  0  0  0  0  0  0  0  0
    8.8013   -3.0060   62.0126 C   0  0  0  0  0  0  0  0  0  0  0  0
    8.2956   -3.7973   63.4546 Cl  0  0  0  0  0  0  0  0  0  0  0  0
   15.0009    0.1301   59.9186 C   0  0  0  0  0  0  0  0  0  0  0  0
   15.4706    1.2590   59.0096 C   0  0  0  0  0  0  0  0  0  0  0  0
   15.7761    0.7743   57.5948 C   0  0  0  0  0  0  0  0  0  0  0  0
   21.0917   -1.7606   57.8812 C   0  0  0  0  0  0  0  0  0  0  0  0
   19.9181   -1.7026   58.5314 C   0  0  0  0  0  0  0  0  0  0  0  0
   21.3290   -1.0079   56.6636 C   0  0  0  0  0  0  0  0  0  0  0  0
   20.3594   -0.2289   56.1618 C   0  0  0  0  0  0  0  0  0  0  0  0
   18.8642   -0.8363   57.9580 C   0  0  0  0  0  0  0  0  0  0  0  0
   18.0312    0.5635   56.4878 C   0  0  0  0  0  0  0  0  0  0  0  0
   17.6675   -0.6299   58.4115 N   0  0  0  0  0  0  0  0  0  0  0  0
   19.1599   -0.1607   56.8130 N   0  0  0  0  0  0  0  0  0  0  0  0
   17.1173    0.2470   57.5079 N   0  0  0  0  0  0  0  0  0  0  0  0
   17.8562    1.3098   55.5355 O   0  0  0  0  0  0  0  0  0  0  0  0
  7  8  2  0
  7  9  1  0
  8 11  1  0
  9 12  2  0
 10 11  2  0
 10 12  1  0
 11  5  1  0
 12 13  1  0
 17 18  2  0
 17 19  1  0
 18 21  1  0
 19 20  2  0
 20 24  1  0
 21 23  2  0
 21 24  1  0
 22 24  1  0
 22 25  1  0
 22 26  2  0
  1  3  1  0
  1  5  1  0
  2  4  1  0
  2  5  1  0
  3  6  1  0
  4  6  1  0
 15 16  1  0
 15 14  1  0
 16 25  1  0
 14  6  1  0
 23 25  1  0
M  CHG  1   6   1
M  END
>  <minimizedAffinity>  (144) 
-10.03531

>  <CNNscore>  (144) 
0.7943434119

>  <CNNaffinity>  (144) 
6.7659797668

>  <CNN_VS>  (144) 
5.3745112419

>  <CNNaffinity_variance>  (144) 
0.0171122868

>  <salt_bridge_distance>  (144) 
(3.111950727437693, 3.111950727437693)

$$$$

     RDKit          3D

 26 29  0  0  0  0  0  0  0  0999 V2000
   11.5620   -0.1493   58.6225 C   0  0  0  0  0  0  0  0  0  0  0  0
   12.8302    1.8963   58.1169 C   0  0  0  0  0  0  0  0  0  0  0  0
   12.6518   -0.6343   59.5712 C   0  0  0  0  0  0  0  0  0  0  0  0
   13.9497    1.4580   59.0589 C   0  0  0  0  0  0  0  0  0  0  0  0
   12.1537    0.7061   57.5914 N   0  0  0  0  0  0  0  0  0  0  0  0
   13.3718    0.5713   60.1435 N   0  0  0  0  0  0  0  0  0  0  0  0
   11.9933   -1.3071   54.5073 C   0  0  0  0  0  0  0  0  0  0  0  0
   11.7177   -0.8412   55.7929 C   0  0  0  0  0  0  0  0  0  0  0  0
   12.9802   -0.6900   53.7385 C   0  0  0  0  0  0  0  0  0  0  0  0
   13.4159    0.8588   55.5408 C   0  0  0  0  0  0  0  0  0  0  0  0
   12.4290    0.2417   56.3097 C   0  0  0  0  0  0  0  0  0  0  0  0
   13.6915    0.3929   54.2553 C   0  0  0  0  0  0  0  0  0  0  0  0
   14.9081    1.1541   53.3056 Cl  0  0  0  0  0  0  0  0  0  0  0  0
   14.4134    0.1716   61.1504 C   0  0  0  0  0  0  0  0  0  0  0  0
   15.7788    0.1583   60.4745 C   0  0  0  0  0  0  0  0  0  0  0  0
   15.8561   -0.8655   59.3451 C   0  0  0  0  0  0  0  0  0  0  0  0
   21.3728   -1.1438   57.2829 C   0  0  0  0  0  0  0  0  0  0  0  0
   20.6074   -1.5725   58.2999 C   0  0  0  0  0  0  0  0  0  0  0  0
   20.8380   -0.3101   56.2225 C   0  0  0  0  0  0  0  0  0  0  0  0
   19.5462    0.0500   56.2450 C   0  0  0  0  0  0  0  0  0  0  0  0
   19.1857   -1.1620   58.3021 C   0  0  0  0  0  0  0  0  0  0  0  0
   17.4166   -0.1387   57.5034 C   0  0  0  0  0  0  0  0  0  0  0  0
   18.2724   -1.4553   59.1741 N   0  0  0  0  0  0  0  0  0  0  0  0
   18.7558   -0.3795   57.2736 N   0  0  0  0  0  0  0  0  0  0  0  0
   17.1468   -0.8260   58.6996 N   0  0  0  0  0  0  0  0  0  0  0  0
   16.6366    0.5181   56.8291 O   0  0  0  0  0  0  0  0  0  0  0  0
  7  8  2  0
  7  9  1  0
  8 11  1  0
  9 12  2  0
 10 11  2  0
 10 12  1  0
 11  5  1  0
 12 13  1  0
 17 18  2  0
 17 19  1  0
 18 21  1  0
 19 20  2  0
 20 24  1  0
 21 23  2  0
 21 24  1  0
 22 24  1  0
 22 25  1  0
 22 26  2  0
  1  3  1  0
  1  5  1  0
  2  4  1  0
  2  5  1  0
  3  6  1  0
  4  6  1  0
 15 16  1  0
 15 14  1  0
 16 25  1  0
 14  6  1  0
 23 25  1  0
M  CHG  1   6   1
M  END
>  <minimizedAffinity>  (145) 
-8.93624

>  <CNNscore>  (145) 
0.6252104044

>  <CNNaffinity>  (145) 
7.1225190163

>  <CNN_VS>  (145) 
4.4530730247

>  <CNNaffinity_variance>  (145) 
0.0855443850

>  <salt_bridge_distance>  (145) 
(3.149523770350049, 3.149523770350049)

$$$$

     RDKit          3D

 26 29  0  0  0  0  0  0  0  0999 V2000
   12.3801   -0.0083   62.1874 C   0  0  0  0  0  0  0  0  0  0  0  0
   10.5664    1.4560   61.4033 C   0  0  0  0  0  0  0  0  0  0  0  0
   13.0490    0.0258   60.8184 C   0  0  0  0  0  0  0  0  0  0  0  0
   11.1976    1.5260   60.0142 C   0  0  0  0  0  0  0  0  0  0  0  0
   10.9365    0.1846   62.0334 N   0  0  0  0  0  0  0  0  0  0  0  0
   12.6959    1.3329   60.1358 N   0  0  0  0  0  0  0  0  0  0  0  0
    8.4660   -2.2423   63.2971 C   0  0  0  0  0  0  0  0  0  0  0  0
    9.3680   -1.1791   63.2579 C   0  0  0  0  0  0  0  0  0  0  0  0
    8.2334   -3.0023   62.1508 C   0  0  0  0  0  0  0  0  0  0  0  0
    9.8047   -1.6358   60.9259 C   0  0  0  0  0  0  0  0  0  0  0  0
   10.0374   -0.8758   62.0722 C   0  0  0  0  0  0  0  0  0  0  0  0
    8.9028   -2.6991   60.9652 C   0  0  0  0  0  0  0  0  0  0  0  0
    8.6144   -3.6366   59.5513 Cl  0  0  0  0  0  0  0  0  0  0  0  0
   13.3852    1.4714   58.8075 C   0  0  0  0  0  0  0  0  0  0  0  0
   14.7750    0.8544   58.9020 C   0  0  0  0  0  0  0  0  0  0  0  0
   15.1090   -0.0092   57.6887 C   0  0  0  0  0  0  0  0  0  0  0  0
   20.8497   -1.3239   57.9722 C   0  0  0  0  0  0  0  0  0  0  0  0
   19.7003   -1.4807   58.6491 C   0  0  0  0  0  0  0  0  0  0  0  0
   20.9019   -0.6108   56.7096 C   0  0  0  0  0  0  0  0  0  0  0  0
   19.7802   -0.0888   56.1920 C   0  0  0  0  0  0  0  0  0  0  0  0
   18.4765   -0.8959   58.0574 C   0  0  0  0  0  0  0  0  0  0  0  0
   17.3407    0.2037   56.5356 C   0  0  0  0  0  0  0  0  0  0  0  0
   17.2699   -0.9246   58.5304 N   0  0  0  0  0  0  0  0  0  0  0  0
   18.6035   -0.2412   56.8699 N   0  0  0  0  0  0  0  0  0  0  0  0
   16.5310   -0.2408   57.5952 N   0  0  0  0  0  0  0  0  0  0  0  0
   16.9955    0.8377   55.5491 O   0  0  0  0  0  0  0  0  0  0  0  0
  7  8  2  0
  7  9  1  0
  8 11  1  0
  9 12  2  0
 10 11  2  0
 10 12  1  0
 11  5  1  0
 12 13  1  0
 17 18  2  0
 17 19  1  0
 18 21  1  0
 19 20  2  0
 20 24  1  0
 21 23  2  0
 21 24  1  0
 22 24  1  0
 22 25  1  0
 22 26  2  0
  1  3  1  0
  1  5  1  0
  2  4  1  0
  2  5  1  0
  3  6  1  0
  4  6  1  0
 15 16  1  0
 15 14  1  0
 16 25  1  0
 14  6  1  0
 23 25  1  0
M  CHG  1   6   1
M  END
>  <minimizedAffinity>  (146) 
-9.50278

>  <CNNscore>  (146) 
0.6059164405

>  <CNNaffinity>  (146) 
6.6365003586

>  <CNN_VS>  (146) 
4.0211648941

>  <CNNaffinity_variance>  (146) 
0.0102721695

>  <salt_bridge_distance>  (146) 
(2.8067674752283964, 2.8067674752283964)

$$$$

     RDKit          3D

 26 29  0  0  0  0  0  0  0  0999 V2000
   11.3669    0.2011   61.8297 C   0  0  0  0  0  0  0  0  0  0  0  0
   10.9720    0.8679   59.4956 C   0  0  0  0  0  0  0  0  0  0  0  0
   12.7763   -0.2720   61.4945 C   0  0  0  0  0  0  0  0  0  0  0  0
   12.3770    0.4117   59.1074 C   0  0  0  0  0  0  0  0  0  0  0  0
   10.5140    0.0810   60.6451 N   0  0  0  0  0  0  0  0  0  0  0  0
   13.2900    0.5258   60.3117 N   0  0  0  0  0  0  0  0  0  0  0  0
    8.7162   -3.0854   61.2211 C   0  0  0  0  0  0  0  0  0  0  0  0
    9.6051   -2.0244   61.3935 C   0  0  0  0  0  0  0  0  0  0  0  0
    7.8500   -3.0991   60.1278 C   0  0  0  0  0  0  0  0  0  0  0  0
    8.7615   -0.9905   59.3794 C   0  0  0  0  0  0  0  0  0  0  0  0
    9.6278   -0.9770   60.4726 C   0  0  0  0  0  0  0  0  0  0  0  0
    7.8727   -2.0516   59.2070 C   0  0  0  0  0  0  0  0  0  0  0  0
    6.8030   -2.0688   57.8591 Cl  0  0  0  0  0  0  0  0  0  0  0  0
   14.7089    0.1660   59.9713 C   0  0  0  0  0  0  0  0  0  0  0  0
   14.8085   -0.1018   58.4748 C   0  0  0  0  0  0  0  0  0  0  0  0
   15.7563    0.8683   57.7746 C   0  0  0  0  0  0  0  0  0  0  0  0
   20.9959   -1.8332   57.8871 C   0  0  0  0  0  0  0  0  0  0  0  0
   19.8521   -1.7275   58.5831 C   0  0  0  0  0  0  0  0  0  0  0  0
   21.2071   -1.1066   56.6490 C   0  0  0  0  0  0  0  0  0  0  0  0
   20.2431   -0.3040   56.1743 C   0  0  0  0  0  0  0  0  0  0  0  0
   18.8039   -0.8361   58.0388 C   0  0  0  0  0  0  0  0  0  0  0  0
   17.9565    0.5682   56.5811 C   0  0  0  0  0  0  0  0  0  0  0  0
   17.6338   -0.5843   58.5368 N   0  0  0  0  0  0  0  0  0  0  0  0
   19.0740   -0.1874   56.8721 N   0  0  0  0  0  0  0  0  0  0  0  0
   17.0754    0.2966   57.6421 N   0  0  0  0  0  0  0  0  0  0  0  0
   17.7666    1.3057   55.6248 O   0  0  0  0  0  0  0  0  0  0  0  0
  7  8  2  0
  7  9  1  0
  8 11  1  0
  9 12  2  0
 10 11  2  0
 10 12  1  0
 11  5  1  0
 12 13  1  0
 17 18  2  0
 17 19  1  0
 18 21  1  0
 19 20  2  0
 20 24  1  0
 21 23  2  0
 21 24  1  0
 22 24  1  0
 22 25  1  0
 22 26  2  0
  1  3  1  0
  1  5  1  0
  2  4  1  0
  2  5  1  0
  3  6  1  0
  4  6  1  0
 15 16  1  0
 15 14  1  0
 16 25  1  0
 14  6  1  0
 23 25  1  0
M  CHG  1   6   1
M  END
>  <minimizedAffinity>  (147) 
-9.87707

>  <CNNscore>  (147) 
0.5893852115

>  <CNNaffinity>  (147) 
6.5907378197

>  <CNN_VS>  (147) 
3.8844833374

>  <CNNaffinity_variance>  (147) 
0.0255596377

>  <salt_bridge_distance>  (147) 
(3.11271735465975, 3.11271735465975)

$$$$

     RDKit          3D

 26 29  0  0  0  0  0  0  0  0999 V2000
   12.5331   -0.0142   62.3680 C   0  0  0  0  0  0  0  0  0  0  0  0
   10.8500    1.3725   61.2310 C   0  0  0  0  0  0  0  0  0  0  0  0
   13.1638   -0.4048   61.0367 C   0  0  0  0  0  0  0  0  0  0  0  0
   11.4462    1.0150   59.8711 C   0  0  0  0  0  0  0  0  0  0  0  0
   11.1115    0.2776   62.1708 N   0  0  0  0  0  0  0  0  0  0  0  0
   12.9212    0.7091   60.0369 N   0  0  0  0  0  0  0  0  0  0  0  0
    8.7240   -2.5145   61.8638 C   0  0  0  0  0  0  0  0  0  0  0  0
    9.7233   -1.5942   61.5477 C   0  0  0  0  0  0  0  0  0  0  0  0
    8.1157   -2.4800   63.1187 C   0  0  0  0  0  0  0  0  0  0  0  0
    9.5065   -0.6052   63.7413 C   0  0  0  0  0  0  0  0  0  0  0  0
   10.1146   -0.6396   62.4864 C   0  0  0  0  0  0  0  0  0  0  0  0
    8.5070   -1.5253   64.0574 C   0  0  0  0  0  0  0  0  0  0  0  0
    7.7569   -1.4843   65.6056 Cl  0  0  0  0  0  0  0  0  0  0  0  0
   13.5836    0.4273   58.7177 C   0  0  0  0  0  0  0  0  0  0  0  0
   15.0659    0.7631   58.8240 C   0  0  0  0  0  0  0  0  0  0  0  0
   15.7183    0.9442   57.4560 C   0  0  0  0  0  0  0  0  0  0  0  0
   20.9150   -1.7854   58.0108 C   0  0  0  0  0  0  0  0  0  0  0  0
   19.7272   -1.6509   58.6230 C   0  0  0  0  0  0  0  0  0  0  0  0
   21.2166   -1.0990   56.7685 C   0  0  0  0  0  0  0  0  0  0  0  0
   20.2941   -0.3056   56.2044 C   0  0  0  0  0  0  0  0  0  0  0  0
   18.7262   -0.7703   57.9810 C   0  0  0  0  0  0  0  0  0  0  0  0
   17.9924    0.5933   56.4262 C   0  0  0  0  0  0  0  0  0  0  0  0
   17.5269   -0.4958   58.3895 N   0  0  0  0  0  0  0  0  0  0  0  0
   19.0810   -0.1599   56.8163 N   0  0  0  0  0  0  0  0  0  0  0  0
   17.0385    0.3603   57.4320 N   0  0  0  0  0  0  0  0  0  0  0  0
   17.8747    1.3018   55.4370 O   0  0  0  0  0  0  0  0  0  0  0  0
  7  8  2  0
  7  9  1  0
  8 11  1  0
  9 12  2  0
 10 11  2  0
 10 12  1  0
 11  5  1  0
 12 13  1  0
 17 18  2  0
 17 19  1  0
 18 21  1  0
 19 20  2  0
 20 24  1  0
 21 23  2  0
 21 24  1  0
 22 24  1  0
 22 25  1  0
 22 26  2  0
  1  3  1  0
  1  5  1  0
  2  4  1  0
  2  5  1  0
  3  6  1  0
  4  6  1  0
 15 16  1  0
 15 14  1  0
 16 25  1  0
 14  6  1  0
 23 25  1  0
M  CHG  1   6   1
M  END
>  <minimizedAffinity>  (148) 
-9.80616

>  <CNNscore>  (148) 
0.5634279251

>  <CNNaffinity>  (148) 
6.5128469467

>  <CNN_VS>  (148) 
3.6695199013

>  <CNNaffinity_variance>  (148) 
0.0325647220

>  <salt_bridge_distance>  (148) 
(3.2159685726076344, 3.2159685726076344)

$$$$

     RDKit          3D

 26 29  0  0  0  0  0  0  0  0999 V2000
   11.6969    0.8821   63.9519 C   0  0  0  0  0  0  0  0  0  0  0  0
    9.9711    1.5615   62.3368 C   0  0  0  0  0  0  0  0  0  0  0  0
   12.3824    0.0089   62.9077 C   0  0  0  0  0  0  0  0  0  0  0  0
   10.6210    0.7041   61.2527 C   0  0  0  0  0  0  0  0  0  0  0  0
   10.2672    0.9784   63.6494 N   0  0  0  0  0  0  0  0  0  0  0  0
   12.1056    0.5851   61.5327 N   0  0  0  0  0  0  0  0  0  0  0  0
    8.7319   -1.7236   65.6323 C   0  0  0  0  0  0  0  0  0  0  0  0
    9.6876   -0.9623   64.9596 C   0  0  0  0  0  0  0  0  0  0  0  0
    7.4022   -1.3033   65.6650 C   0  0  0  0  0  0  0  0  0  0  0  0
    7.9841    0.6398   64.3525 C   0  0  0  0  0  0  0  0  0  0  0  0
    9.3138    0.2194   64.3197 C   0  0  0  0  0  0  0  0  0  0  0  0
    7.0283   -0.1216   65.0251 C   0  0  0  0  0  0  0  0  0  0  0  0
    5.3879    0.3967   65.0669 Cl  0  0  0  0  0  0  0  0  0  0  0  0
   12.8164   -0.1826   60.4538 C   0  0  0  0  0  0  0  0  0  0  0  0
   14.0774   -0.8079   61.0371 C   0  0  0  0  0  0  0  0  0  0  0  0
   15.2191    0.1976   61.1599 C   0  0  0  0  0  0  0  0  0  0  0  0
   18.8561   -0.2758   56.5434 C   0  0  0  0  0  0  0  0  0  0  0  0
   18.5987   -0.8281   57.7402 C   0  0  0  0  0  0  0  0  0  0  0  0
   18.0774    0.8364   56.0315 C   0  0  0  0  0  0  0  0  0  0  0  0
   17.0702    1.3371   56.7620 C   0  0  0  0  0  0  0  0  0  0  0  0
   17.4825   -0.2582   58.5271 C   0  0  0  0  0  0  0  0  0  0  0  0
   15.8224    1.1285   58.8961 C   0  0  0  0  0  0  0  0  0  0  0  0
   17.0598   -0.6286   59.6954 N   0  0  0  0  0  0  0  0  0  0  0  0
   16.7969    0.7845   57.9816 N   0  0  0  0  0  0  0  0  0  0  0  0
   16.0149    0.2251   59.9557 N   0  0  0  0  0  0  0  0  0  0  0  0
   14.9816    2.0120   58.8134 O   0  0  0  0  0  0  0  0  0  0  0  0
  7  8  2  0
  7  9  1  0
  8 11  1  0
  9 12  2  0
 10 11  2  0
 10 12  1  0
 11  5  1  0
 12 13  1  0
 17 18  2  0
 17 19  1  0
 18 21  1  0
 19 20  2  0
 20 24  1  0
 21 23  2  0
 21 24  1  0
 22 24  1  0
 22 25  1  0
 22 26  2  0
  1  3  1  0
  1  5  1  0
  2  4  1  0
  2  5  1  0
  3  6  1  0
  4  6  1  0
 15 16  1  0
 15 14  1  0
 16 25  1  0
 14  6  1  0
 23 25  1  0
M  CHG  1   6   1
M  END
>  <minimizedAffinity>  (149) 
-8.52502

>  <CNNscore>  (149) 
0.5100210905

>  <CNNaffinity>  (149) 
6.7028360367

>  <CNN_VS>  (149) 
3.4185876846

>  <CNNaffinity_variance>  (149) 
0.0371228382

>  <salt_bridge_distance>  (149) 
(3.1519279592021134, 3.1519279592021134)

$$$$

     RDKit          3D

 26 29  0  0  0  0  0  0  0  0999 V2000
   11.4809    0.5213   61.8427 C   0  0  0  0  0  0  0  0  0  0  0  0
   11.8236    1.1414   59.4876 C   0  0  0  0  0  0  0  0  0  0  0  0
   12.8014   -0.2390   61.8727 C   0  0  0  0  0  0  0  0  0  0  0  0
   13.1566    0.3961   59.4654 C   0  0  0  0  0  0  0  0  0  0  0  0
   10.9431    0.5174   60.4804 N   0  0  0  0  0  0  0  0  0  0  0  0
   13.7451    0.3830   60.8619 N   0  0  0  0  0  0  0  0  0  0  0  0
    8.1903   -0.9597   58.5233 C   0  0  0  0  0  0  0  0  0  0  0  0
    9.2061   -0.0903   58.9208 C   0  0  0  0  0  0  0  0  0  0  0  0
    7.8983   -2.0881   59.2896 C   0  0  0  0  0  0  0  0  0  0  0  0
    9.6381   -1.4779   60.8509 C   0  0  0  0  0  0  0  0  0  0  0  0
    9.9300   -0.3494   60.0846 C   0  0  0  0  0  0  0  0  0  0  0  0
    8.6223   -2.3472   60.4535 C   0  0  0  0  0  0  0  0  0  0  0  0
    8.2621   -3.7401   61.3977 Cl  0  0  0  0  0  0  0  0  0  0  0  0
   15.0992   -0.2684   60.8899 C   0  0  0  0  0  0  0  0  0  0  0  0
   16.0700    0.5673   60.0650 C   0  0  0  0  0  0  0  0  0  0  0  0
   16.9027   -0.2854   59.1115 C   0  0  0  0  0  0  0  0  0  0  0  0
   14.1546   -0.8748   53.9284 C   0  0  0  0  0  0  0  0  0  0  0  0
   14.2120   -1.4169   55.1558 C   0  0  0  0  0  0  0  0  0  0  0  0
   14.9801    0.2583   53.5540 C   0  0  0  0  0  0  0  0  0  0  0  0
   15.8280    0.7893   54.4471 C   0  0  0  0  0  0  0  0  0  0  0  0
   15.1551   -0.8133   56.1233 C   0  0  0  0  0  0  0  0  0  0  0  0
   16.6837    0.6221   56.7698 C   0  0  0  0  0  0  0  0  0  0  0  0
   15.3749   -1.1687   57.3504 N   0  0  0  0  0  0  0  0  0  0  0  0
   15.8965    0.2479   55.6999 N   0  0  0  0  0  0  0  0  0  0  0  0
   16.3323   -0.2841   57.7853 N   0  0  0  0  0  0  0  0  0  0  0  0
   17.5001    1.5300   56.8308 O   0  0  0  0  0  0  0  0  0  0  0  0
  7  8  2  0
  7  9  1  0
  8 11  1  0
  9 12  2  0
 10 11  2  0
 10 12  1  0
 11  5  1  0
 12 13  1  0
 17 18  2  0
 17 19  1  0
 18 21  1  0
 19 20  2  0
 20 24  1  0
 21 23  2  0
 21 24  1  0
 22 24  1  0
 22 25  1  0
 22 26  2  0
  1  3  1  0
  1  5  1  0
  2  4  1  0
  2  5  1  0
  3  6  1  0
  4  6  1  0
 15 16  1  0
 15 14  1  0
 16 25  1  0
 14  6  1  0
 23 25  1  0
M  CHG  1   6   1
M  END
>  <minimizedAffinity>  (150) 
-8.57978

>  <CNNscore>  (150) 
0.4699710011

>  <CNNaffinity>  (150) 
6.6445856094

>  <CNN_VS>  (150) 
3.1227624416

>  <CNNaffinity_variance>  (150) 
0.1858926117

>  <salt_bridge_distance>  (150) 
(2.934268396040144, 2.934268396040144)

$$$$

     RDKit          3D

 26 29  0  0  0  0  0  0  0  0999 V2000
   14.6064    1.6260   58.6867 C   0  0  0  0  0  0  0  0  0  0  0  0
   16.6005    0.2551   59.1259 C   0  0  0  0  0  0  0  0  0  0  0  0
   13.7583    0.7509   59.6019 C   0  0  0  0  0  0  0  0  0  0  0  0
   15.7962   -0.6511   60.0557 C   0  0  0  0  0  0  0  0  0  0  0  0
   15.6997    0.8313   58.1225 N   0  0  0  0  0  0  0  0  0  0  0  0
   14.6551    0.1410   60.6616 N   0  0  0  0  0  0  0  0  0  0  0  0
   16.4204    0.3389   54.5408 C   0  0  0  0  0  0  0  0  0  0  0  0
   16.4664    0.8560   55.8354 C   0  0  0  0  0  0  0  0  0  0  0  0
   15.5610   -0.7186   54.2423 C   0  0  0  0  0  0  0  0  0  0  0  0
   14.7938   -0.7419   56.5331 C   0  0  0  0  0  0  0  0  0  0  0  0
   15.6531    0.3157   56.8316 C   0  0  0  0  0  0  0  0  0  0  0  0
   14.7477   -1.2589   55.2384 C   0  0  0  0  0  0  0  0  0  0  0  0
   13.6886   -2.5641   54.8694 Cl  0  0  0  0  0  0  0  0  0  0  0  0
   13.8723   -0.6766   61.6503 C   0  0  0  0  0  0  0  0  0  0  0  0
   12.3911   -0.3524   61.5012 C   0  0  0  0  0  0  0  0  0  0  0  0
   11.8215    0.3359   62.7388 C   0  0  0  0  0  0  0  0  0  0  0  0
    6.8091   -2.5945   63.7647 C   0  0  0  0  0  0  0  0  0  0  0  0
    7.8342   -2.5352   62.8990 C   0  0  0  0  0  0  0  0  0  0  0  0
    6.7261   -1.7108   64.9126 C   0  0  0  0  0  0  0  0  0  0  0  0
    7.6918   -0.8054   65.1281 C   0  0  0  0  0  0  0  0  0  0  0  0
    8.8870   -1.5282   63.1584 C   0  0  0  0  0  0  0  0  0  0  0  0
    9.8356    0.1057   64.2744 C   0  0  0  0  0  0  0  0  0  0  0  0
    9.9563   -1.2953   62.4634 N   0  0  0  0  0  0  0  0  0  0  0  0
    8.7410   -0.7344   64.2554 N   0  0  0  0  0  0  0  0  0  0  0  0
   10.5751   -0.2719   63.1402 N   0  0  0  0  0  0  0  0  0  0  0  0
   10.1085    0.9789   65.0853 O   0  0  0  0  0  0  0  0  0  0  0  0
  7  8  2  0
  7  9  1  0
  8 11  1  0
  9 12  2  0
 10 11  2  0
 10 12  1  0
 11  5  1  0
 12 13  1  0
 17 18  2  0
 17 19  1  0
 18 21  1  0
 19 20  2  0
 20 24  1  0
 21 23  2  0
 21 24  1  0
 22 24  1  0
 22 25  1  0
 22 26  2  0
  1  3  1  0
  1  5  1  0
  2  4  1  0
  2  5  1  0
  3  6  1  0
  4  6  1  0
 15 16  1  0
 15 14  1  0
 16 25  1  0
 14  6  1  0
 23 25  1  0
M  CHG  1   6   1
M  END
>  <minimizedAffinity>  (151) 
-8.90116

>  <CNNscore>  (151) 
0.4533299506

>  <CNNaffinity>  (151) 
6.5581941605

>  <CNN_VS>  (151) 
2.9730257988

>  <CNNaffinity_variance>  (151) 
0.1414037943

>  <salt_bridge_distance>  (151) 
(3.3040465447690037, 3.3040465447690037)

$$$$

     RDKit          3D

 26 29  0  0  0  0  0  0  0  0999 V2000
   11.4029    0.7041   63.5687 C   0  0  0  0  0  0  0  0  0  0  0  0
    9.7149    1.7126   62.0914 C   0  0  0  0  0  0  0  0  0  0  0  0
   12.0716    0.0075   62.3896 C   0  0  0  0  0  0  0  0  0  0  0  0
   10.3490    1.0398   60.8757 C   0  0  0  0  0  0  0  0  0  0  0  0
    9.9798    0.8979   63.2816 N   0  0  0  0  0  0  0  0  0  0  0  0
   11.8265    0.8260   61.1369 N   0  0  0  0  0  0  0  0  0  0  0  0
    7.0808   -0.2710   65.2360 C   0  0  0  0  0  0  0  0  0  0  0  0
    8.0669    0.5655   64.7132 C   0  0  0  0  0  0  0  0  0  0  0  0
    7.0247   -1.6099   64.8486 C   0  0  0  0  0  0  0  0  0  0  0  0
    8.9408   -1.2756   63.4155 C   0  0  0  0  0  0  0  0  0  0  0  0
    8.9969    0.0633   63.8029 C   0  0  0  0  0  0  0  0  0  0  0  0
    7.9547   -2.1122   63.9384 C   0  0  0  0  0  0  0  0  0  0  0  0
    7.8841   -3.7638   63.4603 Cl  0  0  0  0  0  0  0  0  0  0  0  0
   12.5242    0.2385   59.9424 C   0  0  0  0  0  0  0  0  0  0  0  0
   13.9012   -0.2577   60.3655 C   0  0  0  0  0  0  0  0  0  0  0  0
   15.0281    0.5740   59.7588 C   0  0  0  0  0  0  0  0  0  0  0  0
   15.0331   -1.0355   54.0866 C   0  0  0  0  0  0  0  0  0  0  0  0
   14.3699   -1.2386   55.2367 C   0  0  0  0  0  0  0  0  0  0  0  0
   16.1756   -0.1444   54.0103 C   0  0  0  0  0  0  0  0  0  0  0  0
   16.5923    0.5010   55.1097 C   0  0  0  0  0  0  0  0  0  0  0  0
   14.8487   -0.5152   56.4356 C   0  0  0  0  0  0  0  0  0  0  0  0
   16.1708    0.8527   57.5291 C   0  0  0  0  0  0  0  0  0  0  0  0
   14.3669   -0.5583   57.6383 N   0  0  0  0  0  0  0  0  0  0  0  0
   15.9265    0.3040   56.2867 N   0  0  0  0  0  0  0  0  0  0  0  0
   15.1774    0.2925   58.3507 N   0  0  0  0  0  0  0  0  0  0  0  0
   17.0455    1.6438   57.8510 O   0  0  0  0  0  0  0  0  0  0  0  0
  7  8  2  0
  7  9  1  0
  8 11  1  0
  9 12  2  0
 10 11  2  0
 10 12  1  0
 11  5  1  0
 12 13  1  0
 17 18  2  0
 17 19  1  0
 18 21  1  0
 19 20  2  0
 20 24  1  0
 21 23  2  0
 21 24  1  0
 22 24  1  0
 22 25  1  0
 22 26  2  0
  1  3  1  0
  1  5  1  0
  2  4  1  0
  2  5  1  0
  3  6  1  0
  4  6  1  0
 15 16  1  0
 15 14  1  0
 16 25  1  0
 14  6  1  0
 23 25  1  0
M  CHG  1   6   1
M  END
>  <minimizedAffinity>  (152) 
-8.60393

>  <CNNscore>  (152) 
0.4320529997

>  <CNNaffinity>  (152) 
6.5516281128

>  <CNN_VS>  (152) 
2.8306505680

>  <CNNaffinity_variance>  (152) 
0.0716363639

>  <salt_bridge_distance>  (152) 
(3.2138116092888844, 3.2138116092888844)

$$$$

     RDKit          3D

 27 30  0  0  0  0  0  0  0  0999 V2000
    9.5483   -1.4663   60.9820 C   0  0  0  0  0  0  0  0  0  0  0  0
    8.5012   -2.3780   61.0235 C   0  0  0  0  0  0  0  0  0  0  0  0
    8.0605   -2.9055   62.2449 C   0  0  0  0  0  0  0  0  0  0  0  0
    8.7124   -2.4677   63.4040 C   0  0  0  0  0  0  0  0  0  0  0  0
   10.1284   -1.1005   62.1798 C   0  0  0  0  0  0  0  0  0  0  0  0
    6.9181   -3.8878   62.2554 C   0  0  0  0  0  0  0  0  0  0  0  0
    8.2809   -2.9143   64.7742 C   0  0  0  0  0  0  0  0  0  0  0  0
    5.5518   -3.2664   62.5515 C   0  0  0  0  0  0  0  0  0  0  0  0
    7.2410   -1.9837   65.3954 C   0  0  0  0  0  0  0  0  0  0  0  0
    5.2735   -2.9408   64.0245 C   0  0  0  0  0  0  0  0  0  0  0  0
    5.9959   -1.6987   64.5492 C   0  0  0  0  0  0  0  0  0  0  0  0
    9.7353   -1.5728   63.3817 N   0  0  0  0  0  0  0  0  0  0  0  0
    6.9606   -3.7834   59.7062 C   0  0  0  0  0  0  0  0  0  0  0  0
    8.2645   -2.0860   58.5857 C   0  0  0  0  0  0  0  0  0  0  0  0
    6.3841   -4.1444   58.4885 C   0  0  0  0  0  0  0  0  0  0  0  0
    7.6881   -2.4470   57.3680 C   0  0  0  0  0  0  0  0  0  0  0  0
    7.9008   -2.7541   59.7548 C   0  0  0  0  0  0  0  0  0  0  0  0
    6.7479   -3.4762   57.3194 C   0  0  0  0  0  0  0  0  0  0  0  0
    6.1941   -3.8230   56.1499 F   0  0  0  0  0  0  0  0  0  0  0  0
   12.0715   -0.0900   60.9726 C   0  0  0  0  0  0  0  0  0  0  0  0
   11.1895    0.9897   62.9986 C   0  0  0  0  0  0  0  0  0  0  0  0
   11.6600    1.1005   60.1147 C   0  0  0  0  0  0  0  0  0  0  0  0
   10.7599    2.2088   62.1850 C   0  0  0  0  0  0  0  0  0  0  0  0
   11.1806   -0.1921   62.1304 N   0  0  0  0  0  0  0  0  0  0  0  0
   11.6647    2.3477   60.9772 N   0  0  0  0  0  0  0  0  0  0  0  0
   11.2174    4.7616   61.1130 C   0  0  0  0  0  0  0  0  0  0  0  0
   11.3420    3.5787   60.1778 C   0  0  0  0  0  0  0  0  0  0  0  0
 13 15  2  0
 13 17  1  0
 14 16  1  0
 14 17  2  0
 15 18  1  0
 16 18  2  0
  1  2  2  0
  1  5  1  0
 17  2  1  0
  2  3  1  0
  3  4  2  0
  3  6  1  0
 18 19  1  0
  4  7  1  0
  4 12  1  0
  5 12  2  0
  5 24  1  0
  6  8  1  0
  7  9  1  0
  8 10  1  0
  9 11  1  0
 10 11  1  0
 20 22  1  0
 20 24  1  0
 21 23  1  0
 21 24  1  0
 22 25  1  0
 23 25  1  0
 26 27  1  0
 27 25  1  0
M  CHG  1  25   1
M  END
>  <minimizedAffinity>  (153) 
-7.03674

>  <CNNscore>  (153) 
0.3989042044

>  <CNNaffinity>  (153) 
6.5017609596

>  <CNN_VS>  (153) 
2.5935797691

>  <CNNaffinity_variance>  (153) 
0.3274489045

>  <salt_bridge_distance>  (153) 
(2.5789998100038694, 2.5789998100038694)

$$$$

     RDKit          3D

 27 30  0  0  0  0  0  0  0  0999 V2000
    9.8750   -0.9723   61.0863 C   0  0  0  0  0  0  0  0  0  0  0  0
    8.8297   -1.8786   61.2100 C   0  0  0  0  0  0  0  0  0  0  0  0
    8.4772   -2.3966   62.4637 C   0  0  0  0  0  0  0  0  0  0  0  0
    9.2139   -1.9550   63.5693 C   0  0  0  0  0  0  0  0  0  0  0  0
   10.5427   -0.6020   62.2361 C   0  0  0  0  0  0  0  0  0  0  0  0
    7.3343   -3.3733   62.5639 C   0  0  0  0  0  0  0  0  0  0  0  0
    8.8818   -2.3912   64.9701 C   0  0  0  0  0  0  0  0  0  0  0  0
    5.9960   -2.7435   62.9551 C   0  0  0  0  0  0  0  0  0  0  0  0
    7.8942   -1.4519   65.6598 C   0  0  0  0  0  0  0  0  0  0  0  0
    5.8275   -2.4077   64.4424 C   0  0  0  0  0  0  0  0  0  0  0  0
    6.5918   -1.1659   64.9050 C   0  0  0  0  0  0  0  0  0  0  0  0
   10.2364   -1.0652   63.4665 N   0  0  0  0  0  0  0  0  0  0  0  0
    8.0353   -1.3541   58.9346 C   0  0  0  0  0  0  0  0  0  0  0  0
    7.5722   -3.5299   59.8772 C   0  0  0  0  0  0  0  0  0  0  0  0
    7.3700   -1.7196   57.7644 C   0  0  0  0  0  0  0  0  0  0  0  0
    6.9068   -3.8953   58.7071 C   0  0  0  0  0  0  0  0  0  0  0  0
    8.1365   -2.2594   59.9910 C   0  0  0  0  0  0  0  0  0  0  0  0
    6.8057   -2.9901   57.6506 C   0  0  0  0  0  0  0  0  0  0  0  0
    6.1668   -3.3409   56.5267 F   0  0  0  0  0  0  0  0  0  0  0  0
   12.9215    0.0413   62.6618 C   0  0  0  0  0  0  0  0  0  0  0  0
   11.5742    1.3200   61.0499 C   0  0  0  0  0  0  0  0  0  0  0  0
   13.8542   -0.4395   61.5565 C   0  0  0  0  0  0  0  0  0  0  0  0
   12.4805    0.8696   59.9060 C   0  0  0  0  0  0  0  0  0  0  0  0
   11.5923    0.3009   62.1043 N   0  0  0  0  0  0  0  0  0  0  0  0
   13.8690    0.5943   60.4473 N   0  0  0  0  0  0  0  0  0  0  0  0
   15.5501    1.4669   58.8794 C   0  0  0  0  0  0  0  0  0  0  0  0
   14.8302    0.2233   59.3531 C   0  0  0  0  0  0  0  0  0  0  0  0
 13 15  2  0
 13 17  1  0
 14 16  1  0
 14 17  2  0
 15 18  1  0
 16 18  2  0
  1  2  2  0
  1  5  1  0
 17  2  1  0
  2  3  1  0
  3  4  2  0
  3  6  1  0
 18 19  1  0
  4  7  1  0
  4 12  1  0
  5 12  2  0
  5 24  1  0
  6  8  1  0
  7  9  1  0
  8 10  1  0
  9 11  1  0
 10 11  1  0
 20 22  1  0
 20 24  1  0
 21 23  1  0
 21 24  1  0
 22 25  1  0
 23 25  1  0
 26 27  1  0
 27 25  1  0
M  CHG  1  25   1
M  END
>  <minimizedAffinity>  (154) 
-8.40060

>  <CNNscore>  (154) 
0.3528041840

>  <CNNaffinity>  (154) 
6.7418403625

>  <CNN_VS>  (154) 
2.3785495758

>  <CNNaffinity_variance>  (154) 
0.1565766633

>  <salt_bridge_distance>  (154) 
(2.9159033557372918, 2.9159033557372918)

$$$$

     RDKit          3D

 32 35  0  0  0  0  0  0  0  0999 V2000
    9.0471   -1.5939   64.1200 C   0  0  0  0  0  0  0  0  0  0  0  0
   10.1558   -0.7886   63.8599 C   0  0  0  0  0  0  0  0  0  0  0  0
    8.4181   -1.4808   61.7901 C   0  0  0  0  0  0  0  0  0  0  0  0
    9.5269   -0.6754   61.5298 C   0  0  0  0  0  0  0  0  0  0  0  0
    8.1782   -1.9401   63.0851 C   0  0  0  0  0  0  0  0  0  0  0  0
   10.3957   -0.3293   62.5647 C   0  0  0  0  0  0  0  0  0  0  0  0
   10.2360   -0.8779   59.0825 C   0  0  0  0  0  0  0  0  0  0  0  0
   10.2415    0.0873   58.0577 C   0  0  0  0  0  0  0  0  0  0  0  0
    9.7569   -0.2087   60.1819 C   0  0  0  0  0  0  0  0  0  0  0  0
    8.9982    2.1618   60.5556 C   0  0  0  0  0  0  0  0  0  0  0  0
    9.8006    1.2789   58.4694 N   0  0  0  0  0  0  0  0  0  0  0  0
    9.5135    1.0669   59.7650 N   0  0  0  0  0  0  0  0  0  0  0  0
    5.9126   -2.4311   64.0884 C   0  0  0  0  0  0  0  0  0  0  0  0
    7.0693   -2.7453   63.3465 N   0  0  0  0  0  0  0  0  0  0  0  0
    5.7209   -1.3453   64.6317 O   0  0  0  0  0  0  0  0  0  0  0  0
    3.3432   -4.7672   65.5418 C   0  0  0  0  0  0  0  0  0  0  0  0
    4.2694   -3.7310   65.4230 C   0  0  0  0  0  0  0  0  0  0  0  0
    3.0821   -5.5976   64.4518 C   0  0  0  0  0  0  0  0  0  0  0  0
    4.6733   -4.3554   63.1242 C   0  0  0  0  0  0  0  0  0  0  0  0
    4.9343   -3.5250   64.2142 C   0  0  0  0  0  0  0  0  0  0  0  0
    3.7471   -5.3916   63.2430 C   0  0  0  0  0  0  0  0  0  0  0  0
    2.1337   -6.5768   61.9593 C   0  0  0  0  0  0  0  0  0  0  0  0
    3.4926   -6.2017   62.1795 O   0  0  0  0  0  0  0  0  0  0  0  0
   11.4924    0.4608   62.3379 O   0  0  0  0  0  0  0  0  0  0  0  0
   12.7661   -0.1473   62.5058 C   0  0  0  0  0  0  0  0  0  0  0  0
   13.2201   -0.7461   61.1890 C   0  0  0  0  0  0  0  0  0  0  0  0
   13.5929    0.8339   59.2894 C   0  0  0  0  0  0  0  0  0  0  0  0
   15.4996   -0.4756   60.2013 C   0  0  0  0  0  0  0  0  0  0  0  0
   14.6148    1.8021   58.7179 C   0  0  0  0  0  0  0  0  0  0  0  0
   16.4231    0.5600   59.5821 C   0  0  0  0  0  0  0  0  0  0  0  0
   14.1840    0.1935   60.5233 N   0  0  0  0  0  0  0  0  0  0  0  0
   15.8320    1.1212   58.4092 O   0  0  0  0  0  0  0  0  0  0  0  0
 16 17  2  0
 16 18  1  0
 17 20  1  0
  1  2  2  0
  1  5  1  0
 18 21  2  0
  2  6  1  0
  7  8  1  0
  7  9  2  0
  3  4  1  0
  3  5  2  0
 19 20  2  0
 19 21  1  0
  8 11  2  0
  4  6  2  0
  4  9  1  0
 20 13  1  0
  5 14  1  0
 21 23  1  0
  6 24  1  0
  9 12  1  0
 13 14  1  0
 13 15  2  0
 27 29  1  0
 27 31  1  0
 28 30  1  0
 28 31  1  0
 29 32  1  0
 30 32  1  0
 10 12  1  0
 22 23  1  0
 26 25  1  0
 26 31  1  0
 25 24  1  0
 11 12  1  0
M  CHG  1  31   1
M  END
>  <minimizedAffinity>  (155) 
-7.40243

>  <CNNscore>  (155) 
0.2958628833

>  <CNNaffinity>  (155) 
6.4269838333

>  <CNN_VS>  (155) 
1.9015059471

>  <CNNaffinity_variance>  (155) 
0.2002712041

>  <salt_bridge_distance>  (155) 
(3.2437878383149537, 3.2437878383149537)

$$$$

     RDKit          3D

 28 32  0  0  0  0  0  0  0  0999 V2000
   14.7715    1.3927   58.7145 C   0  0  0  0  0  0  0  0  0  0  0  0
   15.7625   -0.7551   59.5487 C   0  0  0  0  0  0  0  0  0  0  0  0
   13.5265    0.8443   59.3984 C   0  0  0  0  0  0  0  0  0  0  0  0
   15.2660   -0.2417   60.8944 C   0  0  0  0  0  0  0  0  0  0  0  0
   15.7697    0.3307   58.5648 N   0  0  0  0  0  0  0  0  0  0  0  0
   13.8707    0.3298   60.7770 N   0  0  0  0  0  0  0  0  0  0  0  0
   19.8215   -1.5197   58.6443 C   0  0  0  0  0  0  0  0  0  0  0  0
   20.5426   -1.3618   57.4658 C   0  0  0  0  0  0  0  0  0  0  0  0
   18.5325   -0.9909   58.7656 C   0  0  0  0  0  0  0  0  0  0  0  0
   19.9974   -0.6736   56.3792 C   0  0  0  0  0  0  0  0  0  0  0  0
   17.9566   -0.2904   57.6830 C   0  0  0  0  0  0  0  0  0  0  0  0
   18.7034   -0.1470   56.5116 C   0  0  0  0  0  0  0  0  0  0  0  0
   16.6852    0.3480   57.5170 C   0  0  0  0  0  0  0  0  0  0  0  0
   16.4353    0.9363   56.3518 N   0  0  0  0  0  0  0  0  0  0  0  0
   17.7601    0.7393   55.3779 S   0  0  0  0  0  0  0  0  0  0  0  0
   12.8137   -0.6057   61.2972 C   0  0  0  0  0  0  0  0  0  0  0  0
   11.4988    0.1397   61.5023 C   0  0  0  0  0  0  0  0  0  0  0  0
    9.7499   -1.6251   61.5655 C   0  0  0  0  0  0  0  0  0  0  0  0
    9.2692   -1.1444   64.3229 C   0  0  0  0  0  0  0  0  0  0  0  0
    8.8025   -2.3495   62.2624 C   0  0  0  0  0  0  0  0  0  0  0  0
   10.4676   -0.6457   62.2596 C   0  0  0  0  0  0  0  0  0  0  0  0
    8.5758   -2.1044   63.6144 C   0  0  0  0  0  0  0  0  0  0  0  0
   10.2290   -0.4076   63.6263 C   0  0  0  0  0  0  0  0  0  0  0  0
    7.1162   -3.7958   63.0653 C   0  0  0  0  0  0  0  0  0  0  0  0
    7.8970   -3.4436   61.7940 C   0  0  0  0  0  0  0  0  0  0  0  0
    7.5827   -2.9570   64.0835 N   0  0  0  0  0  0  0  0  0  0  0  0
    6.2511   -4.6540   63.1476 O   0  0  0  0  0  0  0  0  0  0  0  0
   11.1140    0.8039   64.4837 Cl  0  0  0  0  0  0  0  0  0  0  0  0
  7  8  2  0
  7  9  1  0
  8 10  1  0
  9 11  2  0
 10 12  2  0
 18 20  2  0
 18 21  1  0
 19 22  2  0
 19 23  1  0
 11 12  1  0
 11 13  1  0
 20 22  1  0
 20 25  1  0
 21 23  2  0
 21 17  1  0
 22 26  1  0
 12 15  1  0
 23 28  1  0
 13 14  2  0
 13  5  1  0
 24 25  1  0
 24 26  1  0
 24 27  2  0
  1  3  1  0
  1  5  1  0
  2  4  1  0
  2  5  1  0
  3  6  1  0
  4  6  1  0
 17 16  1  0
 16  6  1  0
 14 15  1  0
M  CHG  1   6   1
M  END
>  <minimizedAffinity>  (156) 
-10.87981

>  <CNNscore>  (156) 
0.7564528584

>  <CNNaffinity>  (156) 
7.0209341049

>  <CNN_VS>  (156) 
5.3110055923

>  <CNNaffinity_variance>  (156) 
0.0231035929

>  <salt_bridge_distance>  (156) 
(3.0089986922562786, 3.0089986922562786)

$$$$

     RDKit          3D

 28 32  0  0  0  0  0  0  0  0999 V2000
   14.4566    1.1581   58.5450 C   0  0  0  0  0  0  0  0  0  0  0  0
   15.8130   -0.6105   59.6955 C   0  0  0  0  0  0  0  0  0  0  0  0
   13.3189    0.4876   59.3030 C   0  0  0  0  0  0  0  0  0  0  0  0
   15.1877   -0.0086   60.9476 C   0  0  0  0  0  0  0  0  0  0  0  0
   15.6429    0.2982   58.5586 N   0  0  0  0  0  0  0  0  0  0  0  0
   13.7133    0.2594   60.7438 N   0  0  0  0  0  0  0  0  0  0  0  0
   19.7213   -1.4908   58.6711 C   0  0  0  0  0  0  0  0  0  0  0  0
   20.4527   -1.3145   57.5015 C   0  0  0  0  0  0  0  0  0  0  0  0
   18.4231   -0.9825   58.7815 C   0  0  0  0  0  0  0  0  0  0  0  0
   19.9089   -0.6279   56.4132 C   0  0  0  0  0  0  0  0  0  0  0  0
   17.8484   -0.2840   57.6970 C   0  0  0  0  0  0  0  0  0  0  0  0
   18.6055   -0.1218   56.5347 C   0  0  0  0  0  0  0  0  0  0  0  0
   16.5692    0.3361   57.5210 C   0  0  0  0  0  0  0  0  0  0  0  0
   16.3230    0.9278   56.3568 N   0  0  0  0  0  0  0  0  0  0  0  0
   17.6612    0.7571   55.3963 S   0  0  0  0  0  0  0  0  0  0  0  0
   12.8386   -0.7747   61.3987 C   0  0  0  0  0  0  0  0  0  0  0  0
   11.4024   -0.6479   60.9010 C   0  0  0  0  0  0  0  0  0  0  0  0
   10.4050    0.0599   63.0647 C   0  0  0  0  0  0  0  0  0  0  0  0
    8.4361   -1.9801   62.9014 C   0  0  0  0  0  0  0  0  0  0  0  0
    9.4537   -0.0957   64.0540 C   0  0  0  0  0  0  0  0  0  0  0  0
   10.3697   -0.8189   61.9772 C   0  0  0  0  0  0  0  0  0  0  0  0
    8.4934   -1.1000   63.9628 C   0  0  0  0  0  0  0  0  0  0  0  0
    9.3938   -1.8300   61.8966 C   0  0  0  0  0  0  0  0  0  0  0  0
    8.0296   -0.0136   65.9369 C   0  0  0  0  0  0  0  0  0  0  0  0
    9.2452    0.6823   65.3140 C   0  0  0  0  0  0  0  0  0  0  0  0
    7.6573   -1.0490   65.0724 N   0  0  0  0  0  0  0  0  0  0  0  0
    7.5029    0.2974   66.9940 O   0  0  0  0  0  0  0  0  0  0  0  0
    9.3512   -2.9172   60.5542 Cl  0  0  0  0  0  0  0  0  0  0  0  0
  7  8  2  0
  7  9  1  0
  8 10  1  0
  9 11  2  0
 10 12  2  0
 18 20  2  0
 18 21  1  0
 19 22  2  0
 19 23  1  0
 11 12  1  0
 11 13  1  0
 20 22  1  0
 20 25  1  0
 21 23  2  0
 21 17  1  0
 22 26  1  0
 12 15  1  0
 23 28  1  0
 13 14  2  0
 13  5  1  0
 24 25  1  0
 24 26  1  0
 24 27  2  0
  1  3  1  0
  1  5  1  0
  2  4  1  0
  2  5  1  0
  3  6  1  0
  4  6  1  0
 17 16  1  0
 16  6  1  0
 14 15  1  0
M  CHG  1   6   1
M  END
>  <minimizedAffinity>  (157) 
-10.54386

>  <CNNscore>  (157) 
0.7248188257

>  <CNNaffinity>  (157) 
7.1098241806

>  <CNN_VS>  (157) 
5.1533346176

>  <CNNaffinity_variance>  (157) 
0.0546858199

>  <salt_bridge_distance>  (157) 
(3.094434567089761, 3.094434567089761)

$$$$

     RDKit          3D

 28 32  0  0  0  0  0  0  0  0999 V2000
   14.6623    1.2736   58.6300 C   0  0  0  0  0  0  0  0  0  0  0  0
   15.8934   -0.6407   59.6841 C   0  0  0  0  0  0  0  0  0  0  0  0
   13.4831    0.6513   59.3656 C   0  0  0  0  0  0  0  0  0  0  0  0
   15.3200   -0.0556   60.9685 C   0  0  0  0  0  0  0  0  0  0  0  0
   15.7834    0.3308   58.5927 N   0  0  0  0  0  0  0  0  0  0  0  0
   13.8677    0.3271   60.7905 N   0  0  0  0  0  0  0  0  0  0  0  0
   19.8165   -1.5599   58.6721 C   0  0  0  0  0  0  0  0  0  0  0  0
   20.5454   -1.3955   57.4992 C   0  0  0  0  0  0  0  0  0  0  0  0
   18.5320   -1.0200   58.7927 C   0  0  0  0  0  0  0  0  0  0  0  0
   20.0127   -0.6896   56.4178 C   0  0  0  0  0  0  0  0  0  0  0  0
   17.9688   -0.3014   57.7153 C   0  0  0  0  0  0  0  0  0  0  0  0
   18.7231   -0.1519   56.5495 C   0  0  0  0  0  0  0  0  0  0  0  0
   16.7045    0.3513   57.5500 C   0  0  0  0  0  0  0  0  0  0  0  0
   16.4666    0.9553   56.3904 N   0  0  0  0  0  0  0  0  0  0  0  0
   17.7946    0.7566   55.4212 S   0  0  0  0  0  0  0  0  0  0  0  0
   12.9242   -0.6713   61.4037 C   0  0  0  0  0  0  0  0  0  0  0  0
   11.6014   -0.0016   61.7621 C   0  0  0  0  0  0  0  0  0  0  0  0
   10.0486   -1.7223   60.8647 C   0  0  0  0  0  0  0  0  0  0  0  0
    8.7691    0.1987   59.2100 C   0  0  0  0  0  0  0  0  0  0  0  0
    8.9997   -2.0763   60.0386 C   0  0  0  0  0  0  0  0  0  0  0  0
   10.4628   -0.3864   60.8624 C   0  0  0  0  0  0  0  0  0  0  0  0
    8.3804   -1.1253   59.2316 C   0  0  0  0  0  0  0  0  0  0  0  0
    9.8285    0.5654   60.0420 C   0  0  0  0  0  0  0  0  0  0  0  0
    7.2666   -3.0902   58.7942 C   0  0  0  0  0  0  0  0  0  0  0  0
    8.3487   -3.4068   59.8328 C   0  0  0  0  0  0  0  0  0  0  0  0
    7.3613   -1.7254   58.5006 N   0  0  0  0  0  0  0  0  0  0  0  0
    6.4800   -3.8983   58.3252 O   0  0  0  0  0  0  0  0  0  0  0  0
   10.3415    2.2155   60.0374 Cl  0  0  0  0  0  0  0  0  0  0  0  0
  7  8  2  0
  7  9  1  0
  8 10  1  0
  9 11  2  0
 10 12  2  0
 18 20  2  0
 18 21  1  0
 19 22  2  0
 19 23  1  0
 11 12  1  0
 11 13  1  0
 20 22  1  0
 20 25  1  0
 21 23  2  0
 21 17  1  0
 22 26  1  0
 12 15  1  0
 23 28  1  0
 13 14  2  0
 13  5  1  0
 24 25  1  0
 24 26  1  0
 24 27  2  0
  1  3  1  0
  1  5  1  0
  2  4  1  0
  2  5  1  0
  3  6  1  0
  4  6  1  0
 17 16  1  0
 16  6  1  0
 14 15  1  0
M  CHG  1   6   1
M  END
>  <minimizedAffinity>  (158) 
-10.57312

>  <CNNscore>  (158) 
0.6888484955

>  <CNNaffinity>  (158) 
7.1717071533

>  <CNN_VS>  (158) 
4.9402198792

>  <CNNaffinity_variance>  (158) 
0.0818697363

>  <salt_bridge_distance>  (158) 
(3.006540329016059, 3.006540329016059)

$$$$

     RDKit          3D

 28 32  0  0  0  0  0  0  0  0999 V2000
   14.9715    1.4259   58.6803 C   0  0  0  0  0  0  0  0  0  0  0  0
   15.9212   -0.7466   59.4987 C   0  0  0  0  0  0  0  0  0  0  0  0
   13.7206    0.9035   59.3740 C   0  0  0  0  0  0  0  0  0  0  0  0
   15.4488   -0.2265   60.8505 C   0  0  0  0  0  0  0  0  0  0  0  0
   15.9440    0.3420   58.5181 N   0  0  0  0  0  0  0  0  0  0  0  0
   14.0657    0.3768   60.7477 N   0  0  0  0  0  0  0  0  0  0  0  0
   19.9827   -1.5373   58.5798 C   0  0  0  0  0  0  0  0  0  0  0  0
   20.6942   -1.3965   57.3932 C   0  0  0  0  0  0  0  0  0  0  0  0
   18.6987   -0.9979   58.7073 C   0  0  0  0  0  0  0  0  0  0  0  0
   20.1442   -0.7153   56.3047 C   0  0  0  0  0  0  0  0  0  0  0  0
   18.1182   -0.3039   57.6229 C   0  0  0  0  0  0  0  0  0  0  0  0
   18.8553   -0.1778   56.4434 C   0  0  0  0  0  0  0  0  0  0  0  0
   16.8500    0.3422   57.4620 C   0  0  0  0  0  0  0  0  0  0  0  0
   16.5938    0.9206   56.2932 N   0  0  0  0  0  0  0  0  0  0  0  0
   17.9082    0.7041   55.3095 S   0  0  0  0  0  0  0  0  0  0  0  0
   12.9926   -0.5363   61.2747 C   0  0  0  0  0  0  0  0  0  0  0  0
   11.6294    0.1431   61.1925 C   0  0  0  0  0  0  0  0  0  0  0  0
    9.9177   -1.3552   62.1937 C   0  0  0  0  0  0  0  0  0  0  0  0
    8.9212   -2.0442   59.6252 C   0  0  0  0  0  0  0  0  0  0  0  0
    8.8615   -2.2336   62.0492 C   0  0  0  0  0  0  0  0  0  0  0  0
   10.4831   -0.8135   61.0349 C   0  0  0  0  0  0  0  0  0  0  0  0
    8.3819   -2.5639   60.7843 C   0  0  0  0  0  0  0  0  0  0  0  0
    9.9890   -1.1553   59.7619 C   0  0  0  0  0  0  0  0  0  0  0  0
    7.0633   -3.7526   62.2475 C   0  0  0  0  0  0  0  0  0  0  0  0
    8.0683   -2.9582   63.0895 C   0  0  0  0  0  0  0  0  0  0  0  0
    7.3240   -3.4580   60.9047 N   0  0  0  0  0  0  0  0  0  0  0  0
    6.2040   -4.4984   62.6914 O   0  0  0  0  0  0  0  0  0  0  0  0
   10.6887   -0.4878   58.3298 Cl  0  0  0  0  0  0  0  0  0  0  0  0
  7  8  2  0
  7  9  1  0
  8 10  1  0
  9 11  2  0
 10 12  2  0
 18 20  2  0
 18 21  1  0
 19 22  2  0
 19 23  1  0
 11 12  1  0
 11 13  1  0
 20 22  1  0
 20 25  1  0
 21 23  2  0
 21 17  1  0
 22 26  1  0
 12 15  1  0
 23 28  1  0
 13 14  2  0
 13  5  1  0
 24 25  1  0
 24 26  1  0
 24 27  2  0
  1  3  1  0
  1  5  1  0
  2  4  1  0
  2  5  1  0
  3  6  1  0
  4  6  1  0
 17 16  1  0
 16  6  1  0
 14 15  1  0
M  CHG  1   6   1
M  END
>  <minimizedAffinity>  (159) 
-10.14382

>  <CNNscore>  (159) 
0.6531663537

>  <CNNaffinity>  (159) 
6.9518456459

>  <CNN_VS>  (159) 
4.5407118797

>  <CNNaffinity_variance>  (159) 
0.0299795568

>  <salt_bridge_distance>  (159) 
(2.9783631779888755, 2.9783631779888755)

$$$$

     RDKit          3D

 28 32  0  0  0  0  0  0  0  0999 V2000
   13.7826    1.3175   58.9158 C   0  0  0  0  0  0  0  0  0  0  0  0
   15.2546   -0.4977   59.8265 C   0  0  0  0  0  0  0  0  0  0  0  0
   12.7443    0.6327   59.7942 C   0  0  0  0  0  0  0  0  0  0  0  0
   14.8040    0.0694   61.1668 C   0  0  0  0  0  0  0  0  0  0  0  0
   14.9500    0.4478   58.7493 N   0  0  0  0  0  0  0  0  0  0  0  0
   13.3190    0.3558   61.1642 N   0  0  0  0  0  0  0  0  0  0  0  0
   14.0341   -1.5618   54.8803 C   0  0  0  0  0  0  0  0  0  0  0  0
   14.9808   -1.3406   53.8859 C   0  0  0  0  0  0  0  0  0  0  0  0
   14.1891   -0.9935   56.1488 C   0  0  0  0  0  0  0  0  0  0  0  0
   16.1049   -0.5481   54.1305 C   0  0  0  0  0  0  0  0  0  0  0  0
   15.3160   -0.1880   56.4240 C   0  0  0  0  0  0  0  0  0  0  0  0
   16.2507    0.0171   55.4068 C   0  0  0  0  0  0  0  0  0  0  0  0
   15.7348    0.5109   57.6020 C   0  0  0  0  0  0  0  0  0  0  0  0
   16.8710    1.1978   57.5432 N   0  0  0  0  0  0  0  0  0  0  0  0
   17.5015    1.0260   56.0216 S   0  0  0  0  0  0  0  0  0  0  0  0
   12.5238   -0.6912   61.8953 C   0  0  0  0  0  0  0  0  0  0  0  0
   11.0868   -0.7199   61.3844 C   0  0  0  0  0  0  0  0  0  0  0  0
   10.0176    0.1215   63.4643 C   0  0  0  0  0  0  0  0  0  0  0  0
    8.2099   -2.0685   63.5010 C   0  0  0  0  0  0  0  0  0  0  0  0
    9.0710   -0.0069   64.4620 C   0  0  0  0  0  0  0  0  0  0  0  0
   10.0594   -0.8611   62.4699 C   0  0  0  0  0  0  0  0  0  0  0  0
    8.1901   -1.0854   64.4693 C   0  0  0  0  0  0  0  0  0  0  0  0
    9.1634   -1.9465   62.4885 C   0  0  0  0  0  0  0  0  0  0  0  0
    7.6262    0.1534   66.3240 C   0  0  0  0  0  0  0  0  0  0  0  0
    8.7919    0.8744   65.6376 C   0  0  0  0  0  0  0  0  0  0  0  0
    7.3416   -0.9881   65.5664 N   0  0  0  0  0  0  0  0  0  0  0  0
    7.0671    0.5270   67.3436 O   0  0  0  0  0  0  0  0  0  0  0  0
    9.2162   -3.1619   61.2613 Cl  0  0  0  0  0  0  0  0  0  0  0  0
  7  8  2  0
  7  9  1  0
  8 10  1  0
  9 11  2  0
 10 12  2  0
 18 20  2  0
 18 21  1  0
 19 22  2  0
 19 23  1  0
 11 12  1  0
 11 13  1  0
 20 22  1  0
 20 25  1  0
 21 23  2  0
 21 17  1  0
 22 26  1  0
 12 15  1  0
 23 28  1  0
 13 14  2  0
 13  5  1  0
 24 25  1  0
 24 26  1  0
 24 27  2  0
  1  3  1  0
  1  5  1  0
  2  4  1  0
  2  5  1  0
  3  6  1  0
  4  6  1  0
 17 16  1  0
 16  6  1  0
 14 15  1  0
M  CHG  1   6   1
M  END
>  <minimizedAffinity>  (160) 
-9.60921

>  <CNNscore>  (160) 
0.5880962610

>  <CNNaffinity>  (160) 
6.9031648636

>  <CNN_VS>  (160) 
4.0597252846

>  <CNNaffinity_variance>  (160) 
0.0328222439

>  <salt_bridge_distance>  (160) 
(2.927565725991476, 2.927565725991476)

$$$$

     RDKit          3D

 28 32  0  0  0  0  0  0  0  0999 V2000
   13.4794    1.5066   59.0188 C   0  0  0  0  0  0  0  0  0  0  0  0
   14.6521   -0.5071   59.9468 C   0  0  0  0  0  0  0  0  0  0  0  0
   12.2833    0.8778   59.7207 C   0  0  0  0  0  0  0  0  0  0  0  0
   14.1016    0.0155   61.2677 C   0  0  0  0  0  0  0  0  0  0  0  0
   14.5697    0.5329   58.9179 N   0  0  0  0  0  0  0  0  0  0  0  0
   12.6618    0.4543   61.1210 N   0  0  0  0  0  0  0  0  0  0  0  0
   14.0371   -1.3353   54.9087 C   0  0  0  0  0  0  0  0  0  0  0  0
   15.1043   -1.1332   54.0403 C   0  0  0  0  0  0  0  0  0  0  0  0
   14.0637   -0.8066   56.2033 C   0  0  0  0  0  0  0  0  0  0  0  0
   16.2239   -0.3995   54.4398 C   0  0  0  0  0  0  0  0  0  0  0  0
   15.1831   -0.0609   56.6339 C   0  0  0  0  0  0  0  0  0  0  0  0
   16.2404    0.1263   55.7408 C   0  0  0  0  0  0  0  0  0  0  0  0
   15.4877    0.5884   57.8737 C   0  0  0  0  0  0  0  0  0  0  0  0
   16.6511    1.2236   57.9703 N   0  0  0  0  0  0  0  0  0  0  0  0
   17.4508    1.0610   56.5294 S   0  0  0  0  0  0  0  0  0  0  0  0
   11.6887   -0.5496   61.6763 C   0  0  0  0  0  0  0  0  0  0  0  0
   10.7762    0.1085   62.7063 C   0  0  0  0  0  0  0  0  0  0  0  0
    9.2900   -1.8426   62.3041 C   0  0  0  0  0  0  0  0  0  0  0  0
    7.7331   -1.2142   64.5946 C   0  0  0  0  0  0  0  0  0  0  0  0
    8.2073   -2.6197   62.6672 C   0  0  0  0  0  0  0  0  0  0  0  0
    9.5979   -0.7345   63.0999 C   0  0  0  0  0  0  0  0  0  0  0  0
    7.4514   -2.3012   63.7925 C   0  0  0  0  0  0  0  0  0  0  0  0
    8.8260   -0.4232   64.2351 C   0  0  0  0  0  0  0  0  0  0  0  0
    6.4638   -4.1917   62.9302 C   0  0  0  0  0  0  0  0  0  0  0  0
    7.6482   -3.8466   62.0202 C   0  0  0  0  0  0  0  0  0  0  0  0
    6.4262   -3.2281   63.9441 N   0  0  0  0  0  0  0  0  0  0  0  0
    5.7076   -5.1384   62.7764 O   0  0  0  0  0  0  0  0  0  0  0  0
    9.2049    0.9470   65.2173 Cl  0  0  0  0  0  0  0  0  0  0  0  0
  7  8  2  0
  7  9  1  0
  8 10  1  0
  9 11  2  0
 10 12  2  0
 18 20  2  0
 18 21  1  0
 19 22  2  0
 19 23  1  0
 11 12  1  0
 11 13  1  0
 20 22  1  0
 20 25  1  0
 21 23  2  0
 21 17  1  0
 22 26  1  0
 12 15  1  0
 23 28  1  0
 13 14  2  0
 13  5  1  0
 24 25  1  0
 24 26  1  0
 24 27  2  0
  1  3  1  0
  1  5  1  0
  2  4  1  0
  2  5  1  0
  3  6  1  0
  4  6  1  0
 17 16  1  0
 16  6  1  0
 14 15  1  0
M  CHG  1   6   1
M  END
>  <minimizedAffinity>  (161) 
-9.78271

>  <CNNscore>  (161) 
0.3961382806

>  <CNNaffinity>  (161) 
6.5731306076

>  <CNN_VS>  (161) 
2.6038687229

>  <CNNaffinity_variance>  (161) 
0.0333883315

>  <salt_bridge_distance>  (161) 
(3.0586859155526245, 3.0586859155526245)

$$$$

     RDKit          3D

 28 32  0  0  0  0  0  0  0  0999 V2000
   11.4704    0.3901   63.4640 C   0  0  0  0  0  0  0  0  0  0  0  0
   10.3108   -0.4078   61.3880 C   0  0  0  0  0  0  0  0  0  0  0  0
   12.7068   -0.0643   62.7001 C   0  0  0  0  0  0  0  0  0  0  0  0
   11.2651    0.5658   60.7082 C   0  0  0  0  0  0  0  0  0  0  0  0
   10.2639   -0.1466   62.8291 N   0  0  0  0  0  0  0  0  0  0  0  0
   12.6606    0.4470   61.2788 N   0  0  0  0  0  0  0  0  0  0  0  0
    7.6587   -3.7322   62.3774 C   0  0  0  0  0  0  0  0  0  0  0  0
    6.5709   -3.7581   63.2433 C   0  0  0  0  0  0  0  0  0  0  0  0
    8.5643   -2.6667   62.4048 C   0  0  0  0  0  0  0  0  0  0  0  0
    6.3584   -2.7236   64.1577 C   0  0  0  0  0  0  0  0  0  0  0  0
    8.3738   -1.6073   63.3190 C   0  0  0  0  0  0  0  0  0  0  0  0
    7.2729   -1.6593   64.1768 C   0  0  0  0  0  0  0  0  0  0  0  0
    9.1174   -0.4096   63.5726 C   0  0  0  0  0  0  0  0  0  0  0  0
    8.6707    0.4073   64.5209 N   0  0  0  0  0  0  0  0  0  0  0  0
    7.2958   -0.2522   65.1666 S   0  0  0  0  0  0  0  0  0  0  0  0
   13.5909   -0.3253   60.3837 C   0  0  0  0  0  0  0  0  0  0  0  0
   15.0419   -0.0699   60.7784 C   0  0  0  0  0  0  0  0  0  0  0  0
   17.1399   -0.7339   59.6230 C   0  0  0  0  0  0  0  0  0  0  0  0
   16.5718    1.0031   57.4492 C   0  0  0  0  0  0  0  0  0  0  0  0
   18.0000   -0.6309   58.5472 C   0  0  0  0  0  0  0  0  0  0  0  0
   15.9778    0.0442   59.6100 C   0  0  0  0  0  0  0  0  0  0  0  0
   17.7107    0.2246   57.4872 C   0  0  0  0  0  0  0  0  0  0  0  0
   15.6966    0.9052   58.5325 C   0  0  0  0  0  0  0  0  0  0  0  0
   19.7149   -0.7564   56.9274 C   0  0  0  0  0  0  0  0  0  0  0  0
   19.2967   -1.3289   58.2866 C   0  0  0  0  0  0  0  0  0  0  0  0
   18.7219    0.1485   56.5360 N   0  0  0  0  0  0  0  0  0  0  0  0
   20.7323   -1.0518   56.3196 O   0  0  0  0  0  0  0  0  0  0  0  0
   14.2619    1.8683   58.5172 Cl  0  0  0  0  0  0  0  0  0  0  0  0
  7  8  2  0
  7  9  1  0
  8 10  1  0
  9 11  2  0
 10 12  2  0
 18 20  2  0
 18 21  1  0
 19 22  2  0
 19 23  1  0
 11 12  1  0
 11 13  1  0
 20 22  1  0
 20 25  1  0
 21 23  2  0
 21 17  1  0
 22 26  1  0
 12 15  1  0
 23 28  1  0
 13 14  2  0
 13  5  1  0
 24 25  1  0
 24 26  1  0
 24 27  2  0
  1  3  1  0
  1  5  1  0
  2  4  1  0
  2  5  1  0
  3  6  1  0
  4  6  1  0
 17 16  1  0
 16  6  1  0
 14 15  1  0
M  CHG  1   6   1
M  END
>  <minimizedAffinity>  (162) 
-9.56761

>  <CNNscore>  (162) 
0.3878352642

>  <CNNaffinity>  (162) 
6.6421346664

>  <CNN_VS>  (162) 
2.5760540962

>  <CNNaffinity_variance>  (162) 
0.0301611274

>  <salt_bridge_distance>  (162) 
(3.028982733526225, 3.028982733526225)

$$$$

     RDKit          3D

 28 32  0  0  0  0  0  0  0  0999 V2000
   11.9809    1.9645   59.3107 C   0  0  0  0  0  0  0  0  0  0  0  0
   11.7983   -0.3509   60.2578 C   0  0  0  0  0  0  0  0  0  0  0  0
   10.8345    2.2281   60.2776 C   0  0  0  0  0  0  0  0  0  0  0  0
   11.9863    0.3797   61.5814 C   0  0  0  0  0  0  0  0  0  0  0  0
   12.1716    0.5216   59.1413 N   0  0  0  0  0  0  0  0  0  0  0  0
   11.1466    1.6365   61.6326 N   0  0  0  0  0  0  0  0  0  0  0  0
   16.4046    0.8288   57.7868 C   0  0  0  0  0  0  0  0  0  0  0  0
   16.6558    0.2204   56.5618 C   0  0  0  0  0  0  0  0  0  0  0  0
   15.1196    0.8125   58.3387 C   0  0  0  0  0  0  0  0  0  0  0  0
   15.6335   -0.4192   55.8566 C   0  0  0  0  0  0  0  0  0  0  0  0
   14.0670    0.1733   57.6474 C   0  0  0  0  0  0  0  0  0  0  0  0
   14.3479   -0.4295   56.4193 C   0  0  0  0  0  0  0  0  0  0  0  0
   12.6792   -0.0015   57.9560 C   0  0  0  0  0  0  0  0  0  0  0  0
   11.9296   -0.6653   57.0823 N   0  0  0  0  0  0  0  0  0  0  0  0
   12.8930   -1.1210   55.8147 S   0  0  0  0  0  0  0  0  0  0  0  0
    9.9030    1.4713   62.4628 C   0  0  0  0  0  0  0  0  0  0  0  0
   10.1451    0.4716   63.5891 C   0  0  0  0  0  0  0  0  0  0  0  0
    8.9339   -1.6139   62.9881 C   0  0  0  0  0  0  0  0  0  0  0  0
    6.9906   -1.1465   65.0056 C   0  0  0  0  0  0  0  0  0  0  0  0
    7.8886   -2.4938   63.1907 C   0  0  0  0  0  0  0  0  0  0  0  0
    9.0074   -0.4833   63.8081 C   0  0  0  0  0  0  0  0  0  0  0  0
    6.9417   -2.2536   64.1831 C   0  0  0  0  0  0  0  0  0  0  0  0
    8.0440   -0.2518   64.8079 C   0  0  0  0  0  0  0  0  0  0  0  0
    6.2856   -4.2289   63.2030 C   0  0  0  0  0  0  0  0  0  0  0  0
    7.5566   -3.7675   62.4808 C   0  0  0  0  0  0  0  0  0  0  0  0
    5.9999   -3.2763   64.1874 N   0  0  0  0  0  0  0  0  0  0  0  0
    5.6571   -5.2442   62.9469 O   0  0  0  0  0  0  0  0  0  0  0  0
    8.1334    1.1460   65.8198 Cl  0  0  0  0  0  0  0  0  0  0  0  0
  7  8  2  0
  7  9  1  0
  8 10  1  0
  9 11  2  0
 10 12  2  0
 18 20  2  0
 18 21  1  0
 19 22  2  0
 19 23  1  0
 11 12  1  0
 11 13  1  0
 20 22  1  0
 20 25  1  0
 21 23  2  0
 21 17  1  0
 22 26  1  0
 12 15  1  0
 23 28  1  0
 13 14  2  0
 13  5  1  0
 24 25  1  0
 24 26  1  0
 24 27  2  0
  1  3  1  0
  1  5  1  0
  2  4  1  0
  2  5  1  0
  3  6  1  0
  4  6  1  0
 17 16  1  0
 16  6  1  0
 14 15  1  0
M  CHG  1   6   1
M  END
>  <minimizedAffinity>  (163) 
-9.76920

>  <CNNscore>  (163) 
0.3366885185

>  <CNNaffinity>  (163) 
6.6984696388

>  <CNN_VS>  (163) 
2.2552978992

>  <CNNaffinity_variance>  (163) 
0.0658299774

>  <salt_bridge_distance>  (163) 
(3.1772687280115304, 3.1772687280115304)

$$$$

     RDKit          3D

 31 32  0  0  0  0  0  0  0  0999 V2000
    6.6391   -2.9759   58.1719 C   0  0  0  0  0  0  0  0  0  0  0  0
    7.3197   -2.4559   57.0710 C   0  0  0  0  0  0  0  0  0  0  0  0
    7.2296   -2.9450   59.4353 C   0  0  0  0  0  0  0  0  0  0  0  0
    8.5910   -1.9050   57.2334 C   0  0  0  0  0  0  0  0  0  0  0  0
    8.5008   -2.3941   59.5977 C   0  0  0  0  0  0  0  0  0  0  0  0
    9.1814   -1.8741   58.4967 C   0  0  0  0  0  0  0  0  0  0  0  0
    9.1174   -2.3698   60.9570 C   0  0  0  0  0  0  0  0  0  0  0  0
    8.6154   -3.4863   61.8930 C   0  0  0  0  0  0  0  0  0  0  0  0
    7.0394   -1.5935   64.7850 C   0  0  0  0  0  0  0  0  0  0  0  0
    7.9710   -2.0398   63.8477 C   0  0  0  0  0  0  0  0  0  0  0  0
    5.7441   -2.1113   64.7821 C   0  0  0  0  0  0  0  0  0  0  0  0
    6.3122   -3.5216   62.9044 C   0  0  0  0  0  0  0  0  0  0  0  0
    7.6074   -3.0038   62.9074 C   0  0  0  0  0  0  0  0  0  0  0  0
    5.3805   -3.0752   63.8417 C   0  0  0  0  0  0  0  0  0  0  0  0
    3.3450   -3.4056   65.0266 C   0  0  0  0  0  0  0  0  0  0  0  0
    4.1167   -3.5809   63.8394 O   0  0  0  0  0  0  0  0  0  0  0  0
   10.4300   -1.3306   58.6387 O   0  0  0  0  0  0  0  0  0  0  0  0
   10.5837    0.0305   58.2471 C   0  0  0  0  0  0  0  0  0  0  0  0
   12.0199    0.4613   58.5293 C   0  0  2  0  0  0  0  0  0  0  0  0
   12.1757    1.3135   59.7842 C   0  0  0  0  0  0  0  0  0  0  0  0
   12.1334   -0.3413   61.6449 C   0  0  0  0  0  0  0  0  0  0  0  0
   14.1737   -0.1020   60.2376 C   0  0  0  0  0  0  0  0  0  0  0  0
   12.9705    0.6014   60.8158 N   0  0  0  0  0  0  0  0  0  0  0  0
   12.5202    1.2008   57.4143 O   0  0  0  0  0  0  0  0  0  0  0  0
   12.9549    0.4520   56.3558 C   0  0  0  0  0  0  0  0  0  0  0  0
   12.6597    0.6330   55.1826 O   0  0  0  0  0  0  0  0  0  0  0  0
   13.8560   -0.6494   56.8707 C   0  0  0  0  0  0  0  0  0  0  0  0
   14.7495   -1.2381   55.7855 C   0  0  0  0  0  0  0  0  0  0  0  0
   14.1131   -2.2824   54.8599 C   0  0  0  0  0  0  0  0  0  0  0  0
   13.3522   -3.1297   55.4020 O   0  0  0  0  0  0  0  0  0  0  0  0
   14.4344   -2.1564   53.6427 O   0  0  0  0  0  0  0  0  0  0  0  0
  1  2  2  0
  1  3  1  0
  2  4  1  0
  9 10  2  0
  9 11  1  0
  3  5  2  0
 10 13  1  0
  4  6  2  0
 11 14  2  0
 12 13  2  0
 12 14  1  0
 13  8  1  0
  5  6  1  0
  5  7  1  0
 14 16  1  0
  6 17  1  0
 29 28  1  0
 29 30  1  0
 29 31  2  0
 25 27  1  0
 25 26  2  0
 25 24  1  0
 21 23  1  0
 22 23  1  0
 15 16  1  0
  8  7  1  0
 28 27  1  0
 19 20  1  1
 20 23  1  0
 18 19  1  0
 18 17  1  0
 19 24  1  0
M  CHG  2  23   1  30  -1
M  END
>  <minimizedAffinity>  (164) 
-7.35389

>  <CNNscore>  (164) 
0.2448322773

>  <CNNaffinity>  (164) 
5.8175520897

>  <CNN_VS>  (164) 
1.4243245125

>  <CNNaffinity_variance>  (164) 
0.4293248057

>  <salt_bridge_distance>  (164) 
(2.9102429194141153, 2.9102429194141153)

$$$$

     RDKit          3D

 37 39  0  0  0  0  0  0  0  0999 V2000
   10.8445    1.8037   60.5842 C   0  0  0  0  0  0  0  0  0  0  0  0
   11.7587   -0.1131   61.9014 C   0  0  0  0  0  0  0  0  0  0  0  0
   11.8523    1.5277   59.4716 C   0  0  0  0  0  0  0  0  0  0  0  0
   12.7310   -0.4271   60.7726 C   0  0  0  0  0  0  0  0  0  0  0  0
   10.4521    0.5467   61.3969 C   0  0  0  0  0  0  0  0  0  0  0  0
   13.0717    0.8521   60.0479 N   0  0  0  0  0  0  0  0  0  0  0  0
    8.9831   -0.1461   59.4512 C   0  0  0  0  0  0  0  0  0  0  0  0
    9.1990   -1.6547   61.3259 C   0  0  0  0  0  0  0  0  0  0  0  0
    8.1302   -1.0519   58.8206 C   0  0  0  0  0  0  0  0  0  0  0  0
    8.3460   -2.5605   60.6953 C   0  0  0  0  0  0  0  0  0  0  0  0
    9.5176   -0.4475   60.7038 C   0  0  0  0  0  0  0  0  0  0  0  0
    7.8116   -2.2590   59.4425 C   0  0  0  0  0  0  0  0  0  0  0  0
    6.7593   -3.3761   58.6645 Cl  0  0  0  0  0  0  0  0  0  0  0  0
    9.7160    1.0055   62.5434 O   0  0  0  0  0  0  0  0  0  0  0  0
   10.4315    1.1022   63.7002 C   0  0  0  0  0  0  0  0  0  0  0  0
   11.5836    1.5019   63.8079 O   0  0  0  0  0  0  0  0  0  0  0  0
    9.6011    0.6170   64.8605 C   0  0  0  0  0  0  0  0  0  0  0  0
    8.1204    0.8735   64.6076 C   0  0  0  0  0  0  0  0  0  0  0  0
    7.2466    0.1311   65.6186 C   0  0  0  0  0  0  0  0  0  0  0  0
    7.4265   -1.3835   65.5036 C   0  0  0  0  0  0  0  0  0  0  0  0
    6.3432   -2.0075   64.6207 C   0  0  0  0  0  0  0  0  0  0  0  0
    5.0430   -1.2032   64.6880 C   0  0  0  0  0  0  0  0  0  0  0  0
    3.7946   -2.0376   64.3879 C   0  0  0  0  0  0  0  0  0  0  0  0
    3.5393   -4.2109   65.6362 C   0  0  0  0  0  0  0  0  0  0  0  0
    4.0591   -3.5436   64.3719 C   0  0  0  0  0  0  0  0  0  0  0  0
   14.1314    0.6335   59.0033 C   0  0  0  0  0  0  0  0  0  0  0  0
   15.4177    0.1899   59.6835 C   0  0  0  0  0  0  0  0  0  0  0  0
   16.2412   -0.7145   58.7651 C   0  0  0  0  0  0  0  0  0  0  0  0
   17.2020    0.0763   57.8901 C   0  0  0  0  0  0  0  0  0  0  0  0
   16.8932    1.1569   57.3930 O   0  0  0  0  0  0  0  0  0  0  0  0
   19.2315   -0.1693   56.4492 C   0  0  0  0  0  0  0  0  0  0  0  0
   19.1634   -1.3174   58.5739 C   0  0  0  0  0  0  0  0  0  0  0  0
   20.5022   -0.6914   56.2079 C   0  0  0  0  0  0  0  0  0  0  0  0
   20.4341   -1.8394   58.3327 C   0  0  0  0  0  0  0  0  0  0  0  0
   18.5621   -0.4823   57.6323 C   0  0  0  0  0  0  0  0  0  0  0  0
   21.1036   -1.5264   57.1497 C   0  0  0  0  0  0  0  0  0  0  0  0
   22.3238   -2.0277   56.9179 F   0  0  0  0  0  0  0  0  0  0  0  0
 31 33  2  0
 31 35  1  0
 32 34  1  0
 32 35  2  0
  7  9  2  0
  7 11  1  0
  8 10  1  0
  8 11  2  0
 33 36  1  0
 34 36  2  0
  9 12  1  0
 10 12  2  0
 35 29  1  0
 11  5  1  0
 36 37  1  0
 12 13  1  0
 29 28  1  0
 29 30  2  0
 15 17  1  0
 15 16  2  0
 15 14  1  0
  1  3  1  0
  1  5  1  0
  2  4  1  0
  2  5  1  0
  3  6  1  0
  4  6  1  0
  5 14  1  0
 24 25  1  0
 28 27  1  0
 17 18  1  0
 25 23  1  0
 27 26  1  0
 18 19  1  0
 23 22  1  0
 19 20  1  0
 22 21  1  0
 20 21  1  0
 26  6  1  0
M  CHG  1   6   1
M  END
>  <minimizedAffinity>  (165) 
-10.13745

>  <CNNscore>  (165) 
0.4473106265

>  <CNNaffinity>  (165) 
7.2519273758

>  <CNN_VS>  (165) 
3.2438640594

>  <CNNaffinity_variance>  (165) 
0.1741018742

>  <salt_bridge_distance>  (165) 
(3.057408332231729, 3.057408332231729)

$$$$

     RDKit          3D

 37 39  0  0  0  0  0  0  0  0999 V2000
   10.8748    1.7644   60.7086 C   0  0  0  0  0  0  0  0  0  0  0  0
   11.9136   -0.2900   61.6809 C   0  0  0  0  0  0  0  0  0  0  0  0
   11.8355    1.6971   59.5245 C   0  0  0  0  0  0  0  0  0  0  0  0
   12.8393   -0.3938   60.4765 C   0  0  0  0  0  0  0  0  0  0  0  0
   10.5633    0.3858   61.3388 C   0  0  0  0  0  0  0  0  0  0  0  0
   13.1027    0.9915   59.9389 N   0  0  0  0  0  0  0  0  0  0  0  0
    9.4748   -1.8644   60.9202 C   0  0  0  0  0  0  0  0  0  0  0  0
    8.9318   -0.0298   59.4450 C   0  0  0  0  0  0  0  0  0  0  0  0
    8.6239   -2.6990   60.1955 C   0  0  0  0  0  0  0  0  0  0  0  0
    8.0810   -0.8644   58.7202 C   0  0  0  0  0  0  0  0  0  0  0  0
    9.6287   -0.5298   60.5450 C   0  0  0  0  0  0  0  0  0  0  0  0
    7.9271   -2.1990   59.0955 C   0  0  0  0  0  0  0  0  0  0  0  0
    6.8777   -3.2287   58.2015 Cl  0  0  0  0  0  0  0  0  0  0  0  0
    9.8696    0.6394   62.5722 O   0  0  0  0  0  0  0  0  0  0  0  0
   10.6635    0.9133   63.6466 C   0  0  0  0  0  0  0  0  0  0  0  0
   11.5789    1.7252   63.6824 O   0  0  0  0  0  0  0  0  0  0  0  0
   10.2689    0.0435   64.8125 C   0  0  0  0  0  0  0  0  0  0  0  0
    8.8211   -0.4126   64.6785 C   0  0  0  0  0  0  0  0  0  0  0  0
    8.7337   -1.9154   64.4120 C   0  0  0  0  0  0  0  0  0  0  0  0
    7.3432   -2.3122   63.9131 C   0  0  0  0  0  0  0  0  0  0  0  0
    6.2724   -2.0364   64.9713 C   0  0  0  0  0  0  0  0  0  0  0  0
    4.8667   -2.1290   64.3737 C   0  0  0  0  0  0  0  0  0  0  0  0
    4.1124   -0.7964   64.3823 C   0  0  0  0  0  0  0  0  0  0  0  0
    4.5763    1.6796   64.3584 C   0  0  0  0  0  0  0  0  0  0  0  0
    4.9059    0.3475   65.0148 C   0  0  0  0  0  0  0  0  0  0  0  0
   14.1167    0.9728   58.8283 C   0  0  0  0  0  0  0  0  0  0  0  0
   15.3131    0.1384   59.2598 C   0  0  0  0  0  0  0  0  0  0  0  0
   15.9767   -0.5339   58.0567 C   0  0  0  0  0  0  0  0  0  0  0  0
   17.1250    0.2922   57.4972 C   0  0  0  0  0  0  0  0  0  0  0  0
   16.9701    1.4494   57.1135 O   0  0  0  0  0  0  0  0  0  0  0  0
   19.2668   -0.1376   56.2791 C   0  0  0  0  0  0  0  0  0  0  0  0
   18.9614   -1.0957   58.4760 C   0  0  0  0  0  0  0  0  0  0  0  0
   20.5334   -0.7165   56.2028 C   0  0  0  0  0  0  0  0  0  0  0  0
   20.2281   -1.6746   58.3996 C   0  0  0  0  0  0  0  0  0  0  0  0
   18.4807   -0.3272   57.4158 C   0  0  0  0  0  0  0  0  0  0  0  0
   21.0142   -1.4850   57.2630 C   0  0  0  0  0  0  0  0  0  0  0  0
   22.2306   -2.0410   57.1896 F   0  0  0  0  0  0  0  0  0  0  0  0
 31 33  2  0
 31 35  1  0
 32 34  1  0
 32 35  2  0
  7  9  2  0
  7 11  1  0
  8 10  1  0
  8 11  2  0
 33 36  1  0
 34 36  2  0
  9 12  1  0
 10 12  2  0
 35 29  1  0
 11  5  1  0
 36 37  1  0
 12 13  1  0
 29 28  1  0
 29 30  2  0
 15 17  1  0
 15 16  2  0
 15 14  1  0
  1  3  1  0
  1  5  1  0
  2  4  1  0
  2  5  1  0
  3  6  1  0
  4  6  1  0
  5 14  1  0
 24 25  1  0
 28 27  1  0
 17 18  1  0
 25 23  1  0
 27 26  1  0
 18 19  1  0
 23 22  1  0
 19 20  1  0
 22 21  1  0
 20 21  1  0
 26  6  1  0
M  CHG  1   6   1
M  END
>  <minimizedAffinity>  (166) 
-9.80625

>  <CNNscore>  (166) 
0.3814275265

>  <CNNaffinity>  (166) 
7.2202339172

>  <CNN_VS>  (166) 
2.7539958954

>  <CNNaffinity_variance>  (166) 
0.0809760019

>  <salt_bridge_distance>  (166) 
(3.016499685065458, 3.016499685065458)

$$$$

     RDKit          3D

 37 39  0  0  0  0  0  0  0  0999 V2000
   10.8543    1.8219   60.7334 C   0  0  0  0  0  0  0  0  0  0  0  0
   11.9168   -0.2300   61.6851 C   0  0  0  0  0  0  0  0  0  0  0  0
   11.8521    1.8102   59.5785 C   0  0  0  0  0  0  0  0  0  0  0  0
   12.8813   -0.2785   60.5080 C   0  0  0  0  0  0  0  0  0  0  0  0
   10.5602    0.4198   61.3184 C   0  0  0  0  0  0  0  0  0  0  0  0
   13.1243    1.1267   60.0142 N   0  0  0  0  0  0  0  0  0  0  0  0
    9.6396   -1.8682   60.7338 C   0  0  0  0  0  0  0  0  0  0  0  0
    8.9038    0.0347   59.4397 C   0  0  0  0  0  0  0  0  0  0  0  0
    8.8336   -2.7048   59.9619 C   0  0  0  0  0  0  0  0  0  0  0  0
    8.0978   -0.8020   58.6677 C   0  0  0  0  0  0  0  0  0  0  0  0
    9.6747   -0.4984   60.4728 C   0  0  0  0  0  0  0  0  0  0  0  0
    8.0627   -2.1718   58.9288 C   0  0  0  0  0  0  0  0  0  0  0  0
    7.0686   -3.2041   57.9766 Cl  0  0  0  0  0  0  0  0  0  0  0  0
    9.8228    0.6231   62.5356 O   0  0  0  0  0  0  0  0  0  0  0  0
   10.5780    0.8337   63.6513 C   0  0  0  0  0  0  0  0  0  0  0  0
   11.4484    1.6838   63.7868 O   0  0  0  0  0  0  0  0  0  0  0  0
   10.2051   -0.1615   64.7200 C   0  0  0  0  0  0  0  0  0  0  0  0
    8.9890   -0.9764   64.2964 C   0  0  0  0  0  0  0  0  0  0  0  0
    9.0681   -2.4090   64.8240 C   0  0  0  0  0  0  0  0  0  0  0  0
    8.5190   -3.4086   63.8047 C   0  0  0  0  0  0  0  0  0  0  0  0
    7.2047   -2.9161   63.1942 C   0  0  0  0  0  0  0  0  0  0  0  0
    6.1988   -4.0602   63.0490 C   0  0  0  0  0  0  0  0  0  0  0  0
    4.8670   -3.7935   63.7560 C   0  0  0  0  0  0  0  0  0  0  0  0
    3.9683   -1.5078   64.3171 C   0  0  0  0  0  0  0  0  0  0  0  0
    4.9216   -2.6181   64.7326 C   0  0  0  0  0  0  0  0  0  0  0  0
   14.1718    1.1632   58.9356 C   0  0  0  0  0  0  0  0  0  0  0  0
   15.4559    0.5446   59.4670 C   0  0  0  0  0  0  0  0  0  0  0  0
   16.0611   -0.4241   58.4497 C   0  0  0  0  0  0  0  0  0  0  0  0
   17.0853    0.2518   57.5506 C   0  0  0  0  0  0  0  0  0  0  0  0
   16.8252    1.2725   56.9175 O   0  0  0  0  0  0  0  0  0  0  0  0
   18.9363   -1.1633   58.4600 C   0  0  0  0  0  0  0  0  0  0  0  0
   19.2329   -0.0915   56.3150 C   0  0  0  0  0  0  0  0  0  0  0  0
   20.2096   -1.7231   58.3563 C   0  0  0  0  0  0  0  0  0  0  0  0
   20.5062   -0.6514   56.2113 C   0  0  0  0  0  0  0  0  0  0  0  0
   18.4479   -0.3475   57.4393 C   0  0  0  0  0  0  0  0  0  0  0  0
   20.9946   -1.4672   57.2320 C   0  0  0  0  0  0  0  0  0  0  0  0
   22.2174   -2.0048   57.1325 F   0  0  0  0  0  0  0  0  0  0  0  0
 31 33  2  0
 31 35  1  0
 32 34  1  0
 32 35  2  0
  7  9  2  0
  7 11  1  0
  8 10  1  0
  8 11  2  0
 33 36  1  0
 34 36  2  0
  9 12  1  0
 10 12  2  0
 35 29  1  0
 11  5  1  0
 36 37  1  0
 12 13  1  0
 29 28  1  0
 29 30  2  0
 15 17  1  0
 15 16  2  0
 15 14  1  0
  1  3  1  0
  1  5  1  0
  2  4  1  0
  2  5  1  0
  3  6  1  0
  4  6  1  0
  5 14  1  0
 24 25  1  0
 28 27  1  0
 17 18  1  0
 25 23  1  0
 27 26  1  0
 18 19  1  0
 23 22  1  0
 19 20  1  0
 22 21  1  0
 20 21  1  0
 26  6  1  0
M  CHG  1   6   1
M  END
>  <minimizedAffinity>  (167) 
-9.81837

>  <CNNscore>  (167) 
0.3515595794

>  <CNNaffinity>  (167) 
7.1580629349

>  <CNN_VS>  (167) 
2.5164856911

>  <CNNaffinity_variance>  (167) 
0.0585587434

>  <salt_bridge_distance>  (167) 
(2.866372449630366, 2.866372449630366)

$$$$

     RDKit          3D

 37 39  0  0  0  0  0  0  0  0999 V2000
   11.8251    0.0256   59.4318 C   0  0  0  0  0  0  0  0  0  0  0  0
    9.9724    1.7009   59.3545 C   0  0  0  0  0  0  0  0  0  0  0  0
   11.8218    0.0834   60.9570 C   0  0  0  0  0  0  0  0  0  0  0  0
    9.9274    1.7238   60.8762 C   0  0  0  0  0  0  0  0  0  0  0  0
   10.4515    0.3403   58.7923 C   0  0  0  0  0  0  0  0  0  0  0  0
   11.3061    1.4257   61.4127 N   0  0  0  0  0  0  0  0  0  0  0  0
    9.5762   -1.8323   59.7607 C   0  0  0  0  0  0  0  0  0  0  0  0
    8.2217   -0.6676   58.1340 C   0  0  0  0  0  0  0  0  0  0  0  0
    8.6044   -2.8282   59.8567 C   0  0  0  0  0  0  0  0  0  0  0  0
    7.2499   -1.6637   58.2300 C   0  0  0  0  0  0  0  0  0  0  0  0
    9.3848   -0.7519   58.8993 C   0  0  0  0  0  0  0  0  0  0  0  0
    7.4413   -2.7440   59.0915 C   0  0  0  0  0  0  0  0  0  0  0  0
    6.2427   -3.9728   59.2100 Cl  0  0  0  0  0  0  0  0  0  0  0  0
   10.6760    0.4981   57.3811 O   0  0  0  0  0  0  0  0  0  0  0  0
   11.6094   -0.3349   56.8384 C   0  0  0  0  0  0  0  0  0  0  0  0
   11.5154   -1.5498   56.7219 O   0  0  0  0  0  0  0  0  0  0  0  0
   12.8173    0.4571   56.4083 C   0  0  0  0  0  0  0  0  0  0  0  0
   13.3284   -0.0308   55.0580 C   0  0  0  0  0  0  0  0  0  0  0  0
   14.6502    0.6418   54.6874 C   0  0  0  0  0  0  0  0  0  0  0  0
   15.8351   -0.2998   54.9092 C   0  0  0  0  0  0  0  0  0  0  0  0
   16.9310    0.3706   55.7411 C   0  0  0  0  0  0  0  0  0  0  0  0
   16.4533    0.6432   57.1691 C   0  0  0  0  0  0  0  0  0  0  0  0
   16.0032   -0.6180   57.9118 C   0  0  0  0  0  0  0  0  0  0  0  0
   18.2176   -1.2010   58.9622 C   0  0  0  0  0  0  0  0  0  0  0  0
   16.7587   -0.8557   59.2199 C   0  0  0  0  0  0  0  0  0  0  0  0
   11.3616    1.5632   62.9094 C   0  0  0  0  0  0  0  0  0  0  0  0
   10.8114    0.2965   63.5469 C   0  0  0  0  0  0  0  0  0  0  0  0
    9.6157    0.6095   64.4480 C   0  0  0  0  0  0  0  0  0  0  0  0
    9.1475   -0.6104   65.2268 C   0  0  0  0  0  0  0  0  0  0  0  0
    9.6616   -0.9408   66.2930 O   0  0  0  0  0  0  0  0  0  0  0  0
    8.2850   -2.4082   63.7170 C   0  0  0  0  0  0  0  0  0  0  0  0
    6.7214   -1.2088   65.1148 C   0  0  0  0  0  0  0  0  0  0  0  0
    7.2378   -3.1712   63.2004 C   0  0  0  0  0  0  0  0  0  0  0  0
    5.6742   -1.9718   64.5982 C   0  0  0  0  0  0  0  0  0  0  0  0
    8.0267   -1.4270   64.6743 C   0  0  0  0  0  0  0  0  0  0  0  0
    5.9324   -2.9530   63.6410 C   0  0  0  0  0  0  0  0  0  0  0  0
    4.9269   -3.6857   63.1448 F   0  0  0  0  0  0  0  0  0  0  0  0
 31 33  2  0
 31 35  1  0
 32 34  1  0
 32 35  2  0
  7  9  2  0
  7 11  1  0
  8 10  1  0
  8 11  2  0
 33 36  1  0
 34 36  2  0
  9 12  1  0
 10 12  2  0
 35 29  1  0
 11  5  1  0
 36 37  1  0
 12 13  1  0
 29 28  1  0
 29 30  2  0
 15 17  1  0
 15 16  2  0
 15 14  1  0
  1  3  1  0
  1  5  1  0
  2  4  1  0
  2  5  1  0
  3  6  1  0
  4  6  1  0
  5 14  1  0
 24 25  1  0
 28 27  1  0
 17 18  1  0
 25 23  1  0
 27 26  1  0
 18 19  1  0
 23 22  1  0
 19 20  1  0
 22 21  1  0
 20 21  1  0
 26  6  1  0
M  CHG  1   6   1
M  END
>  <minimizedAffinity>  (168) 
-9.22654

>  <CNNscore>  (168) 
0.3412632048

>  <CNNaffinity>  (168) 
7.3754334450

>  <CNN_VS>  (168) 
2.5169639587

>  <CNNaffinity_variance>  (168) 
0.4906230569

>  <salt_bridge_distance>  (168) 
(3.172655132534893, 3.172655132534893)

$$$$

     RDKit          3D

 35 41  0  0  0  0  0  0  0  0999 V2000
   10.0670    0.2990   64.8561 C   0  0  0  0  0  0  0  0  0  0  0  0
   11.1093    1.2924   64.3547 C   0  0  0  0  0  0  0  0  0  0  0  0
   10.2359   -1.0769   64.2157 C   0  0  0  0  0  0  0  0  0  0  0  0
   11.1323    1.3742   62.8300 C   0  0  0  0  0  0  0  0  0  0  0  0
   10.2678   -1.0281   62.6786 C   0  0  2  0  0  0  0  0  0  0  0  0
   11.2960    0.0026   62.1534 C   0  0  2  0  0  0  0  0  0  0  0  0
    8.8692   -0.7538   62.1107 C   0  0  0  0  0  0  0  0  0  0  0  0
    6.8341   -3.7206   62.2386 C   0  0  0  0  0  0  0  0  0  0  0  0
    6.4190   -3.0492   63.4098 C   0  0  0  0  0  0  0  0  0  0  0  0
    7.7823   -2.9654   61.6168 C   0  0  0  0  0  0  0  0  0  0  0  0
    7.1113   -1.8801   63.5098 C   0  0  0  0  0  0  0  0  0  0  0  0
    4.5769   -4.6335   61.8701 C   0  0  0  0  0  0  0  0  0  0  0  0
    4.1171   -3.8898   63.1678 C   0  0  0  0  0  0  0  0  0  0  0  0
    5.9360   -5.3171   63.6871 C   0  0  0  0  0  0  0  0  0  0  0  0
    6.0574   -4.9949   62.1594 C   0  0  2  0  0  0  0  0  0  0  0  0
    5.3818   -3.9021   64.0657 C   0  0  1  0  0  0  0  0  0  0  0  0
    7.9459   -1.8368   62.4043 N   0  0  0  0  0  0  0  0  0  0  0  0
    8.4748   -3.1491   60.5026 O   0  0  0  0  0  0  0  0  0  0  0  0
    7.0897   -0.9088   64.4103 O   0  0  0  0  0  0  0  0  0  0  0  0
   12.7310   -0.5172   62.3105 C   0  0  0  0  0  0  0  0  0  0  0  0
   13.9327    0.3092   58.7779 C   0  0  0  0  0  0  0  0  0  0  0  0
   15.8485    0.5180   60.3529 C   0  0  0  0  0  0  0  0  0  0  0  0
   13.1317   -0.4158   59.8509 C   0  0  0  0  0  0  0  0  0  0  0  0
   15.0410   -0.2032   61.4247 C   0  0  0  0  0  0  0  0  0  0  0  0
   15.3739    0.1540   59.0141 N   0  0  0  0  0  0  0  0  0  0  0  0
   13.5734    0.0641   61.2102 N   0  0  0  0  0  0  0  0  0  0  0  0
   19.5054   -1.5000   58.7219 C   0  0  0  0  0  0  0  0  0  0  0  0
   20.1489   -1.2204   57.5213 C   0  0  0  0  0  0  0  0  0  0  0  0
   18.2037   -1.0441   58.9541 C   0  0  0  0  0  0  0  0  0  0  0  0
   19.5119   -0.4800   56.5226 C   0  0  0  0  0  0  0  0  0  0  0  0
   17.5356   -0.2932   57.9618 C   0  0  0  0  0  0  0  0  0  0  0  0
   18.2059   -0.0273   56.7659 C   0  0  0  0  0  0  0  0  0  0  0  0
   16.2300    0.2941   57.9156 C   0  0  0  0  0  0  0  0  0  0  0  0
   15.8872    0.9550   56.8148 N   0  0  0  0  0  0  0  0  0  0  0  0
   17.1604    0.8949   55.7575 S   0  0  0  0  0  0  0  0  0  0  0  0
 27 28  2  0
 27 29  1  0
 28 30  1  0
 29 31  2  0
 30 32  2  0
 31 32  1  0
 31 33  1  0
  8  9  1  0
  8 10  2  0
  8 15  1  0
  9 11  2  0
  9 16  1  0
 32 35  1  0
 33 34  2  0
 33 25  1  0
 10 17  1  0
 10 18  1  0
 11 17  1  0
 11 19  1  0
  1  2  1  0
  1  3  1  0
  2  4  1  0
 12 13  1  0
 15 12  1  1
 16 13  1  6
  3  5  1  0
  4  6  1  0
 14 15  1  0
 14 16  1  0
 21 23  1  0
 21 25  1  0
 22 24  1  0
 22 25  1  0
 23 26  1  0
 24 26  1  0
  5  6  1  0
  5  7  1  1
  6 20  1  1
  7 17  1  0
 20 26  1  0
 34 35  1  0
M  CHG  1  26   1
M  END
>  <minimizedAffinity>  (169) 
-9.53651

>  <CNNscore>  (169) 
0.5348017812

>  <CNNaffinity>  (169) 
7.2893652916

>  <CNN_VS>  (169) 
3.8983654976

>  <CNNaffinity_variance>  (169) 
0.3973718286

>  <salt_bridge_distance>  (169) 
(3.1540112888193663, 3.1540112888193663)

$$$$

     RDKit          3D

 35 41  0  0  0  0  0  0  0  0999 V2000
   10.7288    1.3067   64.9386 C   0  0  0  0  0  0  0  0  0  0  0  0
   11.7304    2.0675   64.0770 C   0  0  0  0  0  0  0  0  0  0  0  0
   10.7746   -0.1965   64.6739 C   0  0  0  0  0  0  0  0  0  0  0  0
   11.5661    1.7466   62.5931 C   0  0  0  0  0  0  0  0  0  0  0  0
   10.6166   -0.5531   63.1860 C   0  0  2  0  0  0  0  0  0  0  0  0
   11.6025    0.2383   62.2932 C   0  0  2  0  0  0  0  0  0  0  0  0
    9.1673   -0.3500   62.7255 C   0  0  0  0  0  0  0  0  0  0  0  0
    8.6238   -0.8923   59.2084 C   0  0  0  0  0  0  0  0  0  0  0  0
    8.6819   -2.2197   59.6876 C   0  0  0  0  0  0  0  0  0  0  0  0
    8.7942   -0.0423   60.2592 C   0  0  0  0  0  0  0  0  0  0  0  0
    8.8880   -2.1876   61.0339 C   0  0  0  0  0  0  0  0  0  0  0  0
    6.9620   -1.5022   57.4965 C   0  0  0  0  0  0  0  0  0  0  0  0
    7.0265   -2.9728   58.0274 C   0  0  0  0  0  0  0  0  0  0  0  0
    9.2034   -2.2671   57.4118 C   0  0  0  0  0  0  0  0  0  0  0  0
    8.3972   -0.9634   57.7329 C   0  0  2  0  0  0  0  0  0  0  0  0
    8.4919   -3.1238   58.5130 C   0  0  1  0  0  0  0  0  0  0  0  0
    8.9553   -0.8464   61.3764 N   0  0  0  0  0  0  0  0  0  0  0  0
    8.8210    1.2798   60.3375 O   0  0  0  0  0  0  0  0  0  0  0  0
    9.0148   -3.1488   61.9367 O   0  0  0  0  0  0  0  0  0  0  0  0
   13.0293   -0.3109   62.4218 C   0  0  0  0  0  0  0  0  0  0  0  0
   14.1468    0.4016   58.8371 C   0  0  0  0  0  0  0  0  0  0  0  0
   16.1110    0.6063   60.3519 C   0  0  0  0  0  0  0  0  0  0  0  0
   13.3614   -0.2788   59.9502 C   0  0  0  0  0  0  0  0  0  0  0  0
   15.3192   -0.0702   61.4638 C   0  0  0  0  0  0  0  0  0  0  0  0
   15.5906    0.2202   59.0366 N   0  0  0  0  0  0  0  0  0  0  0  0
   13.8522    0.2244   61.2839 N   0  0  0  0  0  0  0  0  0  0  0  0
   19.6825   -1.5165   58.6767 C   0  0  0  0  0  0  0  0  0  0  0  0
   20.2967   -1.2821   57.4513 C   0  0  0  0  0  0  0  0  0  0  0  0
   18.3961   -1.0307   58.9319 C   0  0  0  0  0  0  0  0  0  0  0  0
   19.6448   -0.5581   56.4502 C   0  0  0  0  0  0  0  0  0  0  0  0
   17.7136   -0.2955   57.9378 C   0  0  0  0  0  0  0  0  0  0  0  0
   18.3544   -0.0750   56.7168 C   0  0  0  0  0  0  0  0  0  0  0  0
   16.4177    0.3142   57.9112 C   0  0  0  0  0  0  0  0  0  0  0  0
   16.0556    0.9505   56.8021 N   0  0  0  0  0  0  0  0  0  0  0  0
   17.2972    0.8379   55.7121 S   0  0  0  0  0  0  0  0  0  0  0  0
 27 28  2  0
 27 29  1  0
 28 30  1  0
 29 31  2  0
 30 32  2  0
 31 32  1  0
 31 33  1  0
  8  9  1  0
  8 10  2  0
  8 15  1  0
  9 11  2  0
  9 16  1  0
 32 35  1  0
 33 34  2  0
 33 25  1  0
 10 17  1  0
 10 18  1  0
 11 17  1  0
 11 19  1  0
  1  2  1  0
  1  3  1  0
  2  4  1  0
 12 13  1  0
 15 12  1  1
 16 13  1  6
  3  5  1  0
  4  6  1  0
 14 15  1  0
 14 16  1  0
 21 23  1  0
 21 25  1  0
 22 24  1  0
 22 25  1  0
 23 26  1  0
 24 26  1  0
  5  6  1  0
  5  7  1  6
  6 20  1  1
  7 17  1  0
 20 26  1  0
 34 35  1  0
M  CHG  1  26   1
M  END
>  <minimizedAffinity>  (170) 
-9.34768

>  <CNNscore>  (170) 
0.4552702308

>  <CNNaffinity>  (170) 
7.4493942261

>  <CNN_VS>  (170) 
3.3914873600

>  <CNNaffinity_variance>  (170) 
0.2420419455

>  <salt_bridge_distance>  (170) 
(2.961141099306143, 2.961141099306143)

$$$$

     RDKit          3D

 35 41  0  0  0  0  0  0  0  0999 V2000
    9.8813    0.3435   65.0848 C   0  0  0  0  0  0  0  0  0  0  0  0
   10.9276    1.3084   64.5382 C   0  0  0  0  0  0  0  0  0  0  0  0
   10.0070   -1.0458   64.4638 C   0  0  0  0  0  0  0  0  0  0  0  0
   10.9101    1.3644   63.0123 C   0  0  0  0  0  0  0  0  0  0  0  0
    9.9975   -1.0233   62.9258 C   0  0  2  0  0  0  0  0  0  0  0  0
   11.0298   -0.0212   62.3552 C   0  0  2  0  0  0  0  0  0  0  0  0
    8.5891   -0.7320   62.3915 C   0  0  0  0  0  0  0  0  0  0  0  0
    6.6313   -3.7523   62.3226 C   0  0  0  0  0  0  0  0  0  0  0  0
    6.1690   -3.1496   63.5134 C   0  0  0  0  0  0  0  0  0  0  0  0
    7.5744   -2.9439   61.7633 C   0  0  0  0  0  0  0  0  0  0  0  0
    6.8271   -1.9695   63.6877 C   0  0  0  0  0  0  0  0  0  0  0  0
    4.4093   -4.7033   61.8510 C   0  0  0  0  0  0  0  0  0  0  0  0
    3.8972   -4.0356   63.1703 C   0  0  0  0  0  0  0  0  0  0  0  0
    5.7399   -5.4398   63.6685 C   0  0  0  0  0  0  0  0  0  0  0  0
    5.8911   -5.0406   62.1617 C   0  0  2  0  0  0  0  0  0  0  0  0
    5.1387   -4.0595   64.0997 C   0  0  1  0  0  0  0  0  0  0  0  0
    7.6879   -1.8511   62.6081 N   0  0  0  0  0  0  0  0  0  0  0  0
    8.2995   -3.0554   60.6602 O   0  0  0  0  0  0  0  0  0  0  0  0
    6.7569   -1.0441   64.6330 O   0  0  0  0  0  0  0  0  0  0  0  0
   12.4586   -0.5654   62.4821 C   0  0  0  0  0  0  0  0  0  0  0  0
   13.4640    0.7207   59.0264 C   0  0  0  0  0  0  0  0  0  0  0  0
   15.5218    0.1780   60.3170 C   0  0  0  0  0  0  0  0  0  0  0  0
   12.6249   -0.0295   60.0519 C   0  0  0  0  0  0  0  0  0  0  0  0
   14.6772   -0.5670   61.3430 C   0  0  0  0  0  0  0  0  0  0  0  0
   14.8435    0.2168   59.0176 N   0  0  0  0  0  0  0  0  0  0  0  0
   13.3010    0.0448   61.3974 N   0  0  0  0  0  0  0  0  0  0  0  0
   13.9965   -1.6633   55.0632 C   0  0  0  0  0  0  0  0  0  0  0  0
   14.8957   -1.3154   54.0611 C   0  0  0  0  0  0  0  0  0  0  0  0
   14.1383   -1.1486   56.3559 C   0  0  0  0  0  0  0  0  0  0  0  0
   15.9579   -0.4465   54.3218 C   0  0  0  0  0  0  0  0  0  0  0  0
   15.2031   -0.2680   56.6478 C   0  0  0  0  0  0  0  0  0  0  0  0
   16.0910    0.0641   55.6223 C   0  0  0  0  0  0  0  0  0  0  0  0
   15.5946    0.4029   57.8512 C   0  0  0  0  0  0  0  0  0  0  0  0
   16.6696    1.1829   57.8034 N   0  0  0  0  0  0  0  0  0  0  0  0
   17.2718    1.1402   56.2613 S   0  0  0  0  0  0  0  0  0  0  0  0
 27 28  2  0
 27 29  1  0
 28 30  1  0
 29 31  2  0
 30 32  2  0
 31 32  1  0
 31 33  1  0
  8  9  1  0
  8 10  2  0
  8 15  1  0
  9 11  2  0
  9 16  1  0
 32 35  1  0
 33 34  2  0
 33 25  1  0
 10 17  1  0
 10 18  1  0
 11 17  1  0
 11 19  1  0
  1  2  1  0
  1  3  1  0
  2  4  1  0
 12 13  1  0
 15 12  1  1
 16 13  1  6
  3  5  1  0
  4  6  1  0
 14 15  1  0
 14 16  1  0
 21 23  1  0
 21 25  1  0
 22 24  1  0
 22 25  1  0
 23 26  1  0
 24 26  1  0
  5  6  1  0
  5  7  1  1
  6 20  1  1
  7 17  1  0
 20 26  1  0
 34 35  1  0
M  CHG  1  26   1
M  END
>  <minimizedAffinity>  (171) 
-9.29922

>  <CNNscore>  (171) 
0.4454840124

>  <CNNaffinity>  (171) 
7.1361684799

>  <CNN_VS>  (171) 
3.1790490150

>  <CNNaffinity_variance>  (171) 
0.2929242253

>  <salt_bridge_distance>  (171) 
(3.180673073423297, 3.180673073423297)

$$$$

     RDKit          3D

 35 41  0  0  0  0  0  0  0  0999 V2000
    8.4043   -0.6279   58.8360 C   0  0  0  0  0  0  0  0  0  0  0  0
    9.7683   -0.3525   58.2129 C   0  0  0  0  0  0  0  0  0  0  0  0
    8.3899   -0.3271   60.3330 C   0  0  0  0  0  0  0  0  0  0  0  0
   10.8898   -1.0814   58.9497 C   0  0  0  0  0  0  0  0  0  0  0  0
    9.5118   -1.0433   61.1041 C   0  0  2  0  0  0  0  0  0  0  0  0
   10.8996   -0.8033   60.4625 C   0  0  2  0  0  0  0  0  0  0  0  0
    9.2144   -2.5427   61.2355 C   0  0  0  0  0  0  0  0  0  0  0  0
    6.0213   -3.4598   62.6223 C   0  0  0  0  0  0  0  0  0  0  0  0
    6.6297   -2.8219   63.7259 C   0  0  0  0  0  0  0  0  0  0  0  0
    6.8903   -3.4378   61.5734 C   0  0  0  0  0  0  0  0  0  0  0  0
    7.8737   -2.4067   63.3570 C   0  0  0  0  0  0  0  0  0  0  0  0
    3.7952   -2.6333   63.2745 C   0  0  0  0  0  0  0  0  0  0  0  0
    4.4692   -1.9268   64.4973 C   0  0  0  0  0  0  0  0  0  0  0  0
    4.9722   -4.2418   64.5566 C   0  0  0  0  0  0  0  0  0  0  0  0
    4.6622   -3.9014   63.0597 C   0  0  2  0  0  0  0  0  0  0  0  0
    5.6525   -2.8633   64.8558 C   0  0  1  0  0  0  0  0  0  0  0  0
    8.0251   -2.7888   62.0335 N   0  0  0  0  0  0  0  0  0  0  0  0
    6.7992   -3.8967   60.3341 O   0  0  0  0  0  0  0  0  0  0  0  0
    8.8293   -1.7684   64.0160 O   0  0  0  0  0  0  0  0  0  0  0  0
   11.4071    0.6148   60.7549 C   0  0  0  0  0  0  0  0  0  0  0  0
   14.7273    1.2112   58.9585 C   0  0  0  0  0  0  0  0  0  0  0  0
   15.0590   -0.5187   60.7169 C   0  0  0  0  0  0  0  0  0  0  0  0
   13.2184    1.0634   59.1001 C   0  0  0  0  0  0  0  0  0  0  0  0
   13.5487   -0.6590   60.8585 C   0  0  0  0  0  0  0  0  0  0  0  0
   15.4101   -0.0174   59.3845 N   0  0  0  0  0  0  0  0  0  0  0  0
   12.8898    0.6516   60.5127 N   0  0  0  0  0  0  0  0  0  0  0  0
   16.6590    0.6102   55.1494 C   0  0  0  0  0  0  0  0  0  0  0  0
   17.9883    0.2923   54.8928 C   0  0  0  0  0  0  0  0  0  0  0  0
   16.1279    0.4629   56.4348 C   0  0  0  0  0  0  0  0  0  0  0  0
   18.8211   -0.1799   55.9101 C   0  0  0  0  0  0  0  0  0  0  0  0
   16.9471   -0.0125   57.4824 C   0  0  0  0  0  0  0  0  0  0  0  0
   18.2780   -0.3240   57.1962 C   0  0  0  0  0  0  0  0  0  0  0  0
   16.6886   -0.2609   58.8692 C   0  0  0  0  0  0  0  0  0  0  0  0
   17.6902   -0.7182   59.6133 N   0  0  0  0  0  0  0  0  0  0  0  0
   19.0253   -0.8726   58.6458 S   0  0  0  0  0  0  0  0  0  0  0  0
 27 28  2  0
 27 29  1  0
 28 30  1  0
 29 31  2  0
 30 32  2  0
 31 32  1  0
 31 33  1  0
  8  9  1  0
  8 10  2  0
  8 15  1  0
  9 11  2  0
  9 16  1  0
 32 35  1  0
 33 34  2  0
 33 25  1  0
 10 17  1  0
 10 18  1  0
 11 17  1  0
 11 19  1  0
  1  2  1  0
  1  3  1  0
  2  4  1  0
 12 13  1  0
 15 12  1  1
 16 13  1  6
  3  5  1  0
  4  6  1  0
 14 15  1  0
 14 16  1  0
 21 23  1  0
 21 25  1  0
 22 24  1  0
 22 25  1  0
 23 26  1  0
 24 26  1  0
  5  6  1  0
  5  7  1  6
  6 20  1  6
  7 17  1  0
 20 26  1  0
 34 35  1  0
M  CHG  1  26   1
M  END
>  <minimizedAffinity>  (172) 
-8.60230

>  <CNNscore>  (172) 
0.3490738571

>  <CNNaffinity>  (172) 
6.9292998314

>  <CNN_VS>  (172) 
2.4188373089

>  <CNNaffinity_variance>  (172) 
0.2437798232

>  <salt_bridge_distance>  (172) 
(3.0225405687930795, 3.0225405687930795)

$$$$

     RDKit          3D

 35 41  0  0  0  0  0  0  0  0999 V2000
    8.5191   -1.3207   59.7585 C   0  0  0  0  0  0  0  0  0  0  0  0
    9.9325   -1.0131   59.2767 C   0  0  0  0  0  0  0  0  0  0  0  0
    8.2021   -0.6228   61.0792 C   0  0  0  0  0  0  0  0  0  0  0  0
   10.9789   -1.3185   60.3462 C   0  0  0  0  0  0  0  0  0  0  0  0
    9.2412   -0.9067   62.1772 C   0  0  2  0  0  0  0  0  0  0  0  0
   10.6853   -0.6338   61.6920 C   0  0  2  0  0  0  0  0  0  0  0  0
    9.0972   -2.3382   62.7099 C   0  0  0  0  0  0  0  0  0  0  0  0
    5.8059   -2.6338   64.1381 C   0  0  0  0  0  0  0  0  0  0  0  0
    5.7142   -3.5230   63.0444 C   0  0  0  0  0  0  0  0  0  0  0  0
    7.0545   -2.0891   64.1527 C   0  0  0  0  0  0  0  0  0  0  0  0
    6.9064   -3.5262   62.3851 C   0  0  0  0  0  0  0  0  0  0  0  0
    4.3224   -4.0441   65.5072 C   0  0  0  0  0  0  0  0  0  0  0  0
    4.2208   -5.0290   64.2955 C   0  0  0  0  0  0  0  0  0  0  0  0
    3.5443   -2.8657   63.6040 C   0  0  0  0  0  0  0  0  0  0  0  0
    4.4855   -2.6544   64.8378 C   0  0  2  0  0  0  0  0  0  0  0  0
    4.3364   -4.1014   63.0578 C   0  0  1  0  0  0  0  0  0  0  0  0
    7.7236   -2.6430   63.0728 N   0  0  0  0  0  0  0  0  0  0  0  0
    7.6327   -1.2137   64.9615 O   0  0  0  0  0  0  0  0  0  0  0  0
    7.3271   -4.1803   61.3127 O   0  0  0  0  0  0  0  0  0  0  0  0
   10.9678    0.8722   61.6128 C   0  0  0  0  0  0  0  0  0  0  0  0
   13.3734    1.9407   58.8419 C   0  0  0  0  0  0  0  0  0  0  0  0
   14.4304    0.1228   60.1735 C   0  0  0  0  0  0  0  0  0  0  0  0
   12.0296    1.6295   59.4869 C   0  0  0  0  0  0  0  0  0  0  0  0
   13.0847   -0.1811   60.8197 C   0  0  0  0  0  0  0  0  0  0  0  0
   14.2450    0.7588   58.8653 N   0  0  0  0  0  0  0  0  0  0  0  0
   12.2586    1.0784   60.8714 N   0  0  0  0  0  0  0  0  0  0  0  0
   13.9144   -1.1643   54.8550 C   0  0  0  0  0  0  0  0  0  0  0  0
   15.0759   -1.0999   54.0932 C   0  0  0  0  0  0  0  0  0  0  0  0
   13.8714   -0.6025   56.1351 C   0  0  0  0  0  0  0  0  0  0  0  0
   16.2230   -0.4744   54.5876 C   0  0  0  0  0  0  0  0  0  0  0  0
   15.0165    0.0360   56.6602 C   0  0  0  0  0  0  0  0  0  0  0  0
   16.1690    0.0859   55.8732 C   0  0  0  0  0  0  0  0  0  0  0  0
   15.2666    0.6873   57.9111 C   0  0  0  0  0  0  0  0  0  0  0  0
   16.4759    1.2012   58.1105 N   0  0  0  0  0  0  0  0  0  0  0  0
   17.3896    0.9135   56.7597 S   0  0  0  0  0  0  0  0  0  0  0  0
 27 28  2  0
 27 29  1  0
 28 30  1  0
 29 31  2  0
 30 32  2  0
 31 32  1  0
 31 33  1  0
  8  9  1  0
  8 10  2  0
  8 15  1  0
  9 11  2  0
  9 16  1  0
 32 35  1  0
 33 34  2  0
 33 25  1  0
 10 17  1  0
 10 18  1  0
 11 17  1  0
 11 19  1  0
  1  2  1  0
  1  3  1  0
  2  4  1  0
 12 13  1  0
 15 12  1  1
 16 13  1  1
  3  5  1  0
  4  6  1  0
 14 15  1  0
 14 16  1  0
 21 23  1  0
 21 25  1  0
 22 24  1  0
 22 25  1  0
 23 26  1  0
 24 26  1  0
  5  6  1  0
  5  7  1  6
  6 20  1  6
  7 17  1  0
 20 26  1  0
 34 35  1  0
M  CHG  1  26   1
M  END
>  <minimizedAffinity>  (173) 
-9.05369

>  <CNNscore>  (173) 
0.3087336719

>  <CNNaffinity>  (173) 
6.9378433228

>  <CNN_VS>  (173) 
2.1419458389

>  <CNNaffinity_variance>  (173) 
0.1871590167

>  <salt_bridge_distance>  (173) 
(2.8409397177694564, 2.8409397177694564)

$$$$

     RDKit          3D

 35 41  0  0  0  0  0  0  0  0999 V2000
   10.5354    1.0171   65.1891 C   0  0  0  0  0  0  0  0  0  0  0  0
   11.5110    1.9274   64.4515 C   0  0  0  0  0  0  0  0  0  0  0  0
   10.6583   -0.4363   64.7370 C   0  0  0  0  0  0  0  0  0  0  0  0
   11.3839    1.7911   62.9359 C   0  0  0  0  0  0  0  0  0  0  0  0
   10.5394   -0.6071   63.2129 C   0  0  2  0  0  0  0  0  0  0  0  0
   11.4982    0.3368   62.4481 C   0  0  2  0  0  0  0  0  0  0  0  0
    9.0886   -0.4147   62.7523 C   0  0  0  0  0  0  0  0  0  0  0  0
    8.5802   -0.9270   59.2254 C   0  0  0  0  0  0  0  0  0  0  0  0
    8.6034   -2.2578   59.6982 C   0  0  0  0  0  0  0  0  0  0  0  0
    8.7549   -0.0863   60.2830 C   0  0  0  0  0  0  0  0  0  0  0  0
    8.7923   -2.2371   61.0473 C   0  0  0  0  0  0  0  0  0  0  0  0
    6.9284   -1.4922   57.4887 C   0  0  0  0  0  0  0  0  0  0  0  0
    6.9543   -2.9665   58.0124 C   0  0  0  0  0  0  0  0  0  0  0  0
    9.1538   -2.3048   57.4292 C   0  0  0  0  0  0  0  0  0  0  0  0
    8.3716   -0.9857   57.7468 C   0  0  2  0  0  0  0  0  0  0  0  0
    8.4095   -3.1516   58.5163 C   0  0  1  0  0  0  0  0  0  0  0  0
    8.8839   -0.8995   61.3979 N   0  0  0  0  0  0  0  0  0  0  0  0
    8.8091    1.2345   60.3688 O   0  0  0  0  0  0  0  0  0  0  0  0
    8.8865   -3.2054   61.9464 O   0  0  0  0  0  0  0  0  0  0  0  0
   12.9481   -0.1572   62.5352 C   0  0  0  0  0  0  0  0  0  0  0  0
   13.6913    0.8205   58.9161 C   0  0  0  0  0  0  0  0  0  0  0  0
   15.8421    0.4249   60.1045 C   0  0  0  0  0  0  0  0  0  0  0  0
   12.9385    0.1563   60.0610 C   0  0  0  0  0  0  0  0  0  0  0  0
   15.0838   -0.2341   61.2497 C   0  0  0  0  0  0  0  0  0  0  0  0
   15.0765    0.3359   58.8571 N   0  0  0  0  0  0  0  0  0  0  0  0
   13.7029    0.3622   61.3441 N   0  0  0  0  0  0  0  0  0  0  0  0
   13.8322   -1.6873   55.0824 C   0  0  0  0  0  0  0  0  0  0  0  0
   14.6668   -1.4374   53.9986 C   0  0  0  0  0  0  0  0  0  0  0  0
   14.0995   -1.1184   56.3318 C   0  0  0  0  0  0  0  0  0  0  0  0
   15.7879   -0.6148   54.1325 C   0  0  0  0  0  0  0  0  0  0  0  0
   15.2261   -0.2827   56.4959 C   0  0  0  0  0  0  0  0  0  0  0  0
   16.0469   -0.0491   55.3905 C   0  0  0  0  0  0  0  0  0  0  0  0
   15.7429    0.4244   57.6293 C   0  0  0  0  0  0  0  0  0  0  0  0
   16.8482    1.1425   57.4596 N   0  0  0  0  0  0  0  0  0  0  0  0
   17.3257    0.9923   55.8811 S   0  0  0  0  0  0  0  0  0  0  0  0
 27 28  2  0
 27 29  1  0
 28 30  1  0
 29 31  2  0
 30 32  2  0
 31 32  1  0
 31 33  1  0
  8  9  1  0
  8 10  2  0
  8 15  1  0
  9 11  2  0
  9 16  1  0
 32 35  1  0
 33 34  2  0
 33 25  1  0
 10 17  1  0
 10 18  1  0
 11 17  1  0
 11 19  1  0
  1  2  1  0
  1  3  1  0
  2  4  1  0
 12 13  1  0
 15 12  1  1
 16 13  1  6
  3  5  1  0
  4  6  1  0
 14 15  1  0
 14 16  1  0
 21 23  1  0
 21 25  1  0
 22 24  1  0
 22 25  1  0
 23 26  1  0
 24 26  1  0
  5  6  1  0
  5  7  1  6
  6 20  1  1
  7 17  1  0
 20 26  1  0
 34 35  1  0
M  CHG  1  26   1
M  END
>  <minimizedAffinity>  (174) 
-9.00484

>  <CNNscore>  (174) 
0.2966381311

>  <CNNaffinity>  (174) 
7.3527173996

>  <CNN_VS>  (174) 
2.1810963154

>  <CNNaffinity_variance>  (174) 
0.1208595186

>  <salt_bridge_distance>  (174) 
(2.8228167599049003, 2.8228167599049003)

$$$$

     RDKit          3D

 24 25  0  0  0  0  0  0  0  0999 V2000
   14.1757    0.1007   57.2123 C   0  0  0  0  0  0  0  0  0  0  0  0
   13.2202    0.4420   58.0227 N   0  0  0  0  0  0  0  0  0  0  0  0
   13.7765    0.9653   53.5482 C   0  0  0  0  0  0  0  0  0  0  0  0
   13.2843   -0.2335   53.0324 C   0  0  0  0  0  0  0  0  0  0  0  0
   14.0662    1.0726   54.9085 C   0  0  0  0  0  0  0  0  0  0  0  0
   13.0816   -1.3250   53.8768 C   0  0  0  0  0  0  0  0  0  0  0  0
   13.8635   -0.0190   55.7530 C   0  0  0  0  0  0  0  0  0  0  0  0
   13.3712   -1.2177   55.2371 C   0  0  0  0  0  0  0  0  0  0  0  0
   13.1720   -2.2738   56.0391 F   0  0  0  0  0  0  0  0  0  0  0  0
   16.5862    0.0801   56.7686 C   0  0  0  0  0  0  0  0  0  0  0  0
   15.5796   -0.2470   57.5916 C   0  0  0  0  0  0  0  0  0  0  0  0
   18.3812   -0.9038   58.1753 C   0  0  0  0  0  0  0  0  0  0  0  0
   18.9676    0.1134   56.0638 C   0  0  0  0  0  0  0  0  0  0  0  0
   19.7233   -1.2093   58.4009 C   0  0  0  0  0  0  0  0  0  0  0  0
   20.3097   -0.1921   56.2893 C   0  0  0  0  0  0  0  0  0  0  0  0
   18.0033   -0.2424   57.0068 C   0  0  0  0  0  0  0  0  0  0  0  0
   20.6877   -0.8535   57.4579 C   0  0  0  0  0  0  0  0  0  0  0  0
   21.9973   -1.1517   57.6780 O   0  0  0  0  0  0  0  0  0  0  0  0
   12.0109    0.6459   57.3474 O   0  0  0  0  0  0  0  0  0  0  0  0
   11.4503    1.8680   57.8087 C   0  0  0  0  0  0  0  0  0  0  0  0
   10.5750    1.6006   59.0172 C   0  0  0  0  0  0  0  0  0  0  0  0
   10.7883    3.3490   60.7776 C   0  0  0  0  0  0  0  0  0  0  0  0
   11.2858    0.9699   61.3189 C   0  0  0  0  0  0  0  0  0  0  0  0
   11.2990    2.0348   60.2596 N   0  0  0  0  0  0  0  0  0  0  0  0
  3  4  2  0
  3  5  1  0
  4  6  1  0
  5  7  2  0
 12 14  2  0
 12 16  1  0
 13 15  1  0
 13 16  2  0
 14 17  1  0
 15 17  2  0
  6  8  2  0
 16 10  1  0
  7  8  1  0
  7  1  1  0
 17 18  1  0
  8  9  1  0
 10 11  2  0
 11  1  1  0
  1  2  2  0
 22 24  1  0
 23 24  1  0
 21 20  1  0
 21 24  1  0
 20 19  1  0
  2 19  1  0
M  CHG  1  24   1
M  END
>  <minimizedAffinity>  (175) 
-8.05306

>  <CNNscore>  (175) 
0.7971810699

>  <CNNaffinity>  (175) 
6.7069230080

>  <CNN_VS>  (175) 
5.3466320038

>  <CNNaffinity_variance>  (175) 
0.0454581976

>  <salt_bridge_distance>  (175) 
(3.2984814991144042, 3.2984814991144042)

$$$$

     RDKit          3D

 24 25  0  0  0  0  0  0  0  0999 V2000
   14.5277    0.0424   57.4785 C   0  0  0  0  0  0  0  0  0  0  0  0
   13.9913    0.7846   58.3992 N   0  0  0  0  0  0  0  0  0  0  0  0
   11.8831   -1.4186   55.1974 C   0  0  0  0  0  0  0  0  0  0  0  0
   12.2222   -0.8409   53.9740 C   0  0  0  0  0  0  0  0  0  0  0  0
   12.6342   -1.1302   56.3370 C   0  0  0  0  0  0  0  0  0  0  0  0
   13.3124    0.0250   53.8900 C   0  0  0  0  0  0  0  0  0  0  0  0
   13.7244   -0.2642   56.2530 C   0  0  0  0  0  0  0  0  0  0  0  0
   14.0636    0.3133   55.0295 C   0  0  0  0  0  0  0  0  0  0  0  0
   15.1096    1.1471   54.9362 F   0  0  0  0  0  0  0  0  0  0  0  0
   16.9741    0.1518   57.3745 C   0  0  0  0  0  0  0  0  0  0  0  0
   15.8761   -0.6015   57.5312 C   0  0  0  0  0  0  0  0  0  0  0  0
   19.1869   -0.1064   56.2766 C   0  0  0  0  0  0  0  0  0  0  0  0
   18.8241   -1.1167   58.4410 C   0  0  0  0  0  0  0  0  0  0  0  0
   20.4926   -0.5970   56.2665 C   0  0  0  0  0  0  0  0  0  0  0  0
   20.1297   -1.6073   58.4309 C   0  0  0  0  0  0  0  0  0  0  0  0
   18.3527   -0.3662   57.3638 C   0  0  0  0  0  0  0  0  0  0  0  0
   20.9641   -1.3475   57.3436 C   0  0  0  0  0  0  0  0  0  0  0  0
   22.2381   -1.8261   57.3338 O   0  0  0  0  0  0  0  0  0  0  0  0
   12.6930    1.1823   58.0586 O   0  0  0  0  0  0  0  0  0  0  0  0
   11.9249    1.2457   59.2530 C   0  0  0  0  0  0  0  0  0  0  0  0
   12.1146   -0.0317   60.0468 C   0  0  0  0  0  0  0  0  0  0  0  0
   11.7771    0.3874   62.4784 C   0  0  0  0  0  0  0  0  0  0  0  0
   13.8887   -0.6611   61.6769 C   0  0  0  0  0  0  0  0  0  0  0  0
   12.7728    0.2923   61.3577 N   0  0  0  0  0  0  0  0  0  0  0  0
  3  4  2  0
  3  5  1  0
  4  6  1  0
  5  7  2  0
 12 14  2  0
 12 16  1  0
 13 15  1  0
 13 16  2  0
 14 17  1  0
 15 17  2  0
  6  8  2  0
 16 10  1  0
  7  8  1  0
  7  1  1  0
 17 18  1  0
  8  9  1  0
 10 11  2  0
 11  1  1  0
  1  2  2  0
 22 24  1  0
 23 24  1  0
 21 20  1  0
 21 24  1  0
 20 19  1  0
  2 19  1  0
M  CHG  1  24   1
M  END
>  <minimizedAffinity>  (176) 
-8.07832

>  <CNNscore>  (176) 
0.7443556786

>  <CNNaffinity>  (176) 
6.6922426224

>  <CNN_VS>  (176) 
4.9814085960

>  <CNNaffinity_variance>  (176) 
0.0424957983

>  <salt_bridge_distance>  (176) 
(3.107558980936645, 3.107558980936645)

$$$$
